{
   "completed_at" : "20191231T200304Z",
   "completed_status" : "Success",
   "created_at" : "20191231T200217Z",
   "current_step" : 0,
   "eplusout_err" : "Program Version,EnergyPlus, Version 9.1.0-08d2e308bb, YMD=2019.12.31 13:02,\n   ** Warning ** Timestep: Requested number (1) is less than the suggested minimum of 4.\n   **   ~~~   ** Please see entry for Timestep in Input/Output Reference for discussion of considerations.\n   ************* Beginning Zone Sizing Calculations\n   ** Warning ** ProcessScheduleInput: Schedule:Day:Interval=\"117 SPACE(S) OCC SCH DEFAULT\", Blank Schedule Type Limits Name input -- will not be validated.\n   ** Warning ** ProcessScheduleInput: Schedule:Day:Interval=\"117 SPACE(S) OCC SCH FRIDAY\", Blank Schedule Type Limits Name input -- will not be validated.\n   ** Warning ** ProcessScheduleInput: Schedule:Day:Interval=\"117 SPACE(S) OCC SCH SATURDAY\", Blank Schedule Type Limits Name input -- will not be validated.\n   ** Warning ** ProcessScheduleInput: Schedule:Day:Interval=\"117 SPACE(S) OCC SCH SUMMER DESIGN DAY\", Blank Schedule Type Limits Name input -- will not be validated.\n   ** Warning ** ProcessScheduleInput: Schedule:Day:Interval=\"117 SPACE(S) OCC SCH SUNDAY\", Blank Schedule Type Limits Name input -- will not be validated.\n   ** Warning ** ProcessScheduleInput: Schedule:Day:Interval=\"117 SPACE(S) OCC SCH WINTER DESIGN DAY\", Blank Schedule Type Limits Name input -- will not be validated.\n   ** Warning ** ProcessScheduleInput: Schedule:Year=\"ELEVATOR SCHEDULE\", Blank Schedule Type Limits Name input -- will not be validated.\n   ** Warning ** ProcessScheduleInput: Schedule:Constant=\"ALWAYS OFF DISCRETE\", Blank Schedule Type Limits Name input -- will not be validated.\n   ** Warning ** ProcessScheduleInput: Schedule:Constant=\"ALWAYS ON CONTINUOUS\", Blank Schedule Type Limits Name input -- will not be validated.\n   ** Warning ** CheckUsedConstructions: There are 10 nominally unused constructions in input.\n   **   ~~~   ** For explicit details on each unused construction, use Output:Diagnostics,DisplayExtraWarnings;\n   ** Warning ** DetermineShadowingCombinations: There are 5 surfaces which are receiving surfaces and are non-convex.\n   **   ~~~   ** ...Shadowing values may be inaccurate. Check .shd report file for more surface shading details\n   **   ~~~   ** ...Add Output:Diagnostics,DisplayExtraWarnings; to see individual warnings for each surface.\n   ************* Beginning System Sizing Calculations\n   ** Severe  ** InitFans: Fan=[Fan:ZoneExhaust,ZONE FULLSERVICERESTAURANT KITCHEN A  - STORY MID EXHAUST FAN] is not on any ZoneHVAC:EquipmentList.  It will not be simulated.\n   ** Severe  ** InitFans: Fan=[Fan:ZoneExhaust,ZONE FULLSERVICERESTAURANT KITCHEN A  - STORY MID2 EXHAUST FAN] is not on any ZoneHVAC:EquipmentList.  It will not be simulated.\n   ** Severe  ** InitFans: Fan=[Fan:ZoneExhaust,ZONE FULLSERVICERESTAURANT KITCHEN A END_B - STORY MID2 EXHAUST FAN] is not on any ZoneHVAC:EquipmentList.  It will not be simulated.\n   ** Severe  ** InitFans: Fan=[Fan:ZoneExhaust,ZONE FULLSERVICERESTAURANT KITCHEN B  - STORY MID EXHAUST FAN] is not on any ZoneHVAC:EquipmentList.  It will not be simulated.\n   ** Severe  ** InitFans: Fan=[Fan:ZoneExhaust,ZONE FULLSERVICERESTAURANT KITCHEN B  - STORY MID2 EXHAUST FAN] is not on any ZoneHVAC:EquipmentList.  It will not be simulated.\n   ** Severe  ** InitFans: Fan=[Fan:ZoneExhaust,ZONE FULLSERVICERESTAURANT KITCHEN B END_B - STORY MID2 EXHAUST FAN] is not on any ZoneHVAC:EquipmentList.  It will not be simulated.\n   ** Severe  ** InitFans: Fan=[Fan:ZoneExhaust,ZONE FULLSERVICERESTAURANT KITCHEN C  - STORY MID EXHAUST FAN] is not on any ZoneHVAC:EquipmentList.  It will not be simulated.\n   ** Severe  ** InitFans: Fan=[Fan:ZoneExhaust,ZONE FULLSERVICERESTAURANT KITCHEN C  - STORY MID2 EXHAUST FAN] is not on any ZoneHVAC:EquipmentList.  It will not be simulated.\n   ** Severe  ** InitFans: Fan=[Fan:ZoneExhaust,ZONE FULLSERVICERESTAURANT KITCHEN C END_B - STORY MID2 EXHAUST FAN] is not on any ZoneHVAC:EquipmentList.  It will not be simulated.\n   ** Severe  ** InitFans: Fan=[Fan:ZoneExhaust,ZONE LARGEHOTEL KITCHEN A  - STORY GROUND EXHAUST FAN] is not on any ZoneHVAC:EquipmentList.  It will not be simulated.\n   ** Severe  ** InitFans: Fan=[Fan:ZoneExhaust,ZONE LARGEHOTEL KITCHEN B  - STORY GROUND EXHAUST FAN] is not on any ZoneHVAC:EquipmentList.  It will not be simulated.\n   ** Severe  ** InitFans: Fan=[Fan:ZoneExhaust,ZONE LARGEHOTEL KITCHEN C  - STORY GROUND EXHAUST FAN] is not on any ZoneHVAC:EquipmentList.  It will not be simulated.\n   ** Warning ** Since Zone Minimum Air Flow Input Method = CONSTANT, input for Fixed Minimum Air Flow Rate will be ignored.\n   **   ~~~   ** Occurs in AirTerminal:SingleDuct:VAV:Reheat = BUILDING STORY 2 THERMALZONE VAV TERMINAL\n   ** Warning ** Since Damper Heating Action = NORMAL, input for Maximum Flow Fraction During Reheat will be ignored.\n   **   ~~~   ** Occurs in AirTerminal:SingleDuct:VAV:Reheat = BUILDING STORY 2 THERMALZONE VAV TERMINAL\n   ** Warning ** Since Zone Minimum Air Flow Input Method = CONSTANT, input for Fixed Minimum Air Flow Rate will be ignored.\n   **   ~~~   ** Occurs in AirTerminal:SingleDuct:VAV:Reheat = BUILDING STORY 4 THERMALZONE VAV TERMINAL\n   ** Warning ** Since Damper Heating Action = NORMAL, input for Maximum Flow Fraction During Reheat will be ignored.\n   **   ~~~   ** Occurs in AirTerminal:SingleDuct:VAV:Reheat = BUILDING STORY 4 THERMALZONE VAV TERMINAL\n   ** Warning ** Since Zone Minimum Air Flow Input Method = CONSTANT, input for Fixed Minimum Air Flow Rate will be ignored.\n   **   ~~~   ** Occurs in AirTerminal:SingleDuct:VAV:Reheat = BUILDING STORY 5 THERMALZONE VAV TERMINAL\n   ** Warning ** Since Damper Heating Action = NORMAL, input for Maximum Flow Fraction During Reheat will be ignored.\n   **   ~~~   ** Occurs in AirTerminal:SingleDuct:VAV:Reheat = BUILDING STORY 5 THERMALZONE VAV TERMINAL\n   ** Warning ** Since Zone Minimum Air Flow Input Method = CONSTANT, input for Fixed Minimum Air Flow Rate will be ignored.\n   **   ~~~   ** Occurs in AirTerminal:SingleDuct:VAV:Reheat = BUILDING STORY 6 THERMALZONE VAV TERMINAL\n   ** Warning ** Since Damper Heating Action = NORMAL, input for Maximum Flow Fraction During Reheat will be ignored.\n   **   ~~~   ** Occurs in AirTerminal:SingleDuct:VAV:Reheat = BUILDING STORY 6 THERMALZONE VAV TERMINAL\n   ** Warning ** Since Zone Minimum Air Flow Input Method = CONSTANT, input for Fixed Minimum Air Flow Rate will be ignored.\n   **   ~~~   ** Occurs in AirTerminal:SingleDuct:VAV:Reheat = BUILDING STORY 7 THERMALZONE VAV TERMINAL\n   ** Warning ** Since Damper Heating Action = NORMAL, input for Maximum Flow Fraction During Reheat will be ignored.\n   **   ~~~   ** Occurs in AirTerminal:SingleDuct:VAV:Reheat = BUILDING STORY 7 THERMALZONE VAV TERMINAL\n   ** Warning ** Since Zone Minimum Air Flow Input Method = CONSTANT, input for Fixed Minimum Air Flow Rate will be ignored.\n   **   ~~~   ** Occurs in AirTerminal:SingleDuct:VAV:Reheat = BUILDING STORY 8 THERMALZONE VAV TERMINAL\n   ** Warning ** Since Damper Heating Action = NORMAL, input for Maximum Flow Fraction During Reheat will be ignored.\n   **   ~~~   ** Occurs in AirTerminal:SingleDuct:VAV:Reheat = BUILDING STORY 8 THERMALZONE VAV TERMINAL\n   ************* Beginning Plant Sizing Calculations\n   ** Warning ** The Standard Ratings is calculated for Coil:Cooling:DX:SingleSpeed = BUILDING STORY 1 THERMALZONE PTAC 1SPD DX AC CLG COIL but not at the AHRI test condition due to curve out of bound.\n   **   ~~~   **  Review the Standard Ratings calculations in the Engineering Reference for this coil type. Also, use Output:Diagnostics, DisplayExtraWarnings for further guidance.\n   ** Warning ** The Standard Ratings is calculated for Coil:Cooling:DX:SingleSpeed = BUILDING STORY 3 THERMALZONE PTAC 1SPD DX AC CLG COIL but not at the AHRI test condition due to curve out of bound.\n   **   ~~~   **  Review the Standard Ratings calculations in the Engineering Reference for this coil type. Also, use Output:Diagnostics, DisplayExtraWarnings for further guidance.\n   ** Warning ** Water heater = 4867GAL NATURALGAS WATER HEATER - 4867KBTU/HR:  Recovery Efficiency and Energy Factor could not be calculated during the test for standard ratings\n   **   ~~~   ** Setpoint was never recovered and/or heater never turned on\n   ** Warning ** Water heater = 36X 50GAL ELECTRICITY WATER HEATER - 20KBTU/HR:  Recovery Efficiency and Energy Factor could not be calculated during the test for standard ratings\n   **   ~~~   ** Setpoint was never recovered and/or heater never turned on\n   ** Warning ** Water heater = 36X 50GAL ELECTRICITY WATER HEATER - 20KBTU/HR 1:  Recovery Efficiency and Energy Factor could not be calculated during the test for standard ratings\n   **   ~~~   ** Setpoint was never recovered and/or heater never turned on\n   ** Warning ** Water heater = 71X 50GAL ELECTRICITY WATER HEATER - 20KBTU/HR:  Recovery Efficiency and Energy Factor could not be calculated during the test for standard ratings\n   **   ~~~   ** Setpoint was never recovered and/or heater never turned on\n   ** Warning ** Check input. Pump nominal power or motor efficiency is set to 0, for pump=BOOSTER WATER LOOP PUMP\n   ** Warning ** Check input. Pump nominal power or motor efficiency is set to 0, for pump=BOOSTER WATER LOOP PUMP 1\n   ** Warning ** Missing temperature setpoint for LeavingSetpointModulated mode Boiler named BOILER\n   **   ~~~   **   A temperature setpoint is needed at the outlet node of a boiler in variable flow mode\n   **   ~~~   **   use a Setpoint Manager to establish a setpoint at the boiler outlet node \n   **   ~~~   **   or use an EMS actuator to establish a setpoint at the boiler outlet node \n   **   ~~~   **   The overall loop setpoint will be assumed for Boiler. The simulation continues ... \n   ** Warning ** Check input. Pump nominal power or motor efficiency is set to 0, for pump=STRIPMALL STRIP MALL - TYPE 1 - 90.1-2004 SERVICE WATER LOOP WATER MAINS PRESSURE DRIVEN\n   ** Warning ** Check input. Pump nominal power or motor efficiency is set to 0, for pump=STRIPMALL STRIP MALL - TYPE 2 - 90.1-2004 SERVICE WATER LOOP WATER MAINS PRESSURE DRIVEN\n   ** Warning ** Output:Meter: invalid Key Name=\"DISTRICTCOOLING:FACILITY\" - not found.\n   ** Warning ** Output:Meter: invalid Key Name=\"DISTRICTHEATING:FACILITY\" - not found.\n   ** Warning ** Output:Meter:MeterFileOnly requested for \"Electricity:Facility\" (TimeStep), already on \"Output:Meter\". Will report to both eplusout.eso and eplusout.mtr\n   ************* Testing Individual Branch Integrity\n   ************* All Branches passed integrity testing\n   ************* Testing Individual Supply Air Path Integrity\n   ************* All Supply Air Paths passed integrity testing\n   ************* Testing Individual Return Air Path Integrity\n   ************* All Return Air Paths passed integrity testing\n   ** Severe  ** Node Connection Error, Node=\"ZONE FULLSERVICERESTAURANT KITCHEN A  - STORY MID EXHAUST FAN INLET AIR NODE\", Inlet node did not find an appropriate matching \"outlet\" node.\n   **   ~~~   ** If this is an outdoor air inlet node, it must be listed in an OutdoorAir:Node or OutdoorAir:NodeList object.\n   **   ~~~   ** Reference Object=FAN:ZONEEXHAUST, Name=ZONE FULLSERVICERESTAURANT KITCHEN A  - STORY MID EXHAUST FAN\n   ** Severe  ** Node Connection Error, Node=\"ZONE FULLSERVICERESTAURANT KITCHEN A  - STORY MID2 EXHAUST FAN INLET AIR NODE\", Inlet node did not find an appropriate matching \"outlet\" node.\n   **   ~~~   ** If this is an outdoor air inlet node, it must be listed in an OutdoorAir:Node or OutdoorAir:NodeList object.\n   **   ~~~   ** Reference Object=FAN:ZONEEXHAUST, Name=ZONE FULLSERVICERESTAURANT KITCHEN A  - STORY MID2 EXHAUST FAN\n   ** Severe  ** Node Connection Error, Node=\"ZONE FULLSERVICERESTAURANT KITCHEN A END_B - STORY MID2 EXHAUST FAN INLET AIR NODE\", Inlet node did not find an appropriate matching \"outlet\" node.\n   **   ~~~   ** If this is an outdoor air inlet node, it must be listed in an OutdoorAir:Node or OutdoorAir:NodeList object.\n   **   ~~~   ** Reference Object=FAN:ZONEEXHAUST, Name=ZONE FULLSERVICERESTAURANT KITCHEN A END_B - STORY MID2 EXHAUST FAN\n   ** Severe  ** Node Connection Error, Node=\"ZONE FULLSERVICERESTAURANT KITCHEN B  - STORY MID EXHAUST FAN INLET AIR NODE\", Inlet node did not find an appropriate matching \"outlet\" node.\n   **   ~~~   ** If this is an outdoor air inlet node, it must be listed in an OutdoorAir:Node or OutdoorAir:NodeList object.\n   **   ~~~   ** Reference Object=FAN:ZONEEXHAUST, Name=ZONE FULLSERVICERESTAURANT KITCHEN B  - STORY MID EXHAUST FAN\n   ** Severe  ** Node Connection Error, Node=\"ZONE FULLSERVICERESTAURANT KITCHEN B  - STORY MID2 EXHAUST FAN INLET AIR NODE\", Inlet node did not find an appropriate matching \"outlet\" node.\n   **   ~~~   ** If this is an outdoor air inlet node, it must be listed in an OutdoorAir:Node or OutdoorAir:NodeList object.\n   **   ~~~   ** Reference Object=FAN:ZONEEXHAUST, Name=ZONE FULLSERVICERESTAURANT KITCHEN B  - STORY MID2 EXHAUST FAN\n   ** Severe  ** Node Connection Error, Node=\"ZONE FULLSERVICERESTAURANT KITCHEN B END_B - STORY MID2 EXHAUST FAN INLET AIR NODE\", Inlet node did not find an appropriate matching \"outlet\" node.\n   **   ~~~   ** If this is an outdoor air inlet node, it must be listed in an OutdoorAir:Node or OutdoorAir:NodeList object.\n   **   ~~~   ** Reference Object=FAN:ZONEEXHAUST, Name=ZONE FULLSERVICERESTAURANT KITCHEN B END_B - STORY MID2 EXHAUST FAN\n   ** Severe  ** Node Connection Error, Node=\"ZONE FULLSERVICERESTAURANT KITCHEN C  - STORY MID EXHAUST FAN INLET AIR NODE\", Inlet node did not find an appropriate matching \"outlet\" node.\n   **   ~~~   ** If this is an outdoor air inlet node, it must be listed in an OutdoorAir:Node or OutdoorAir:NodeList object.\n   **   ~~~   ** Reference Object=FAN:ZONEEXHAUST, Name=ZONE FULLSERVICERESTAURANT KITCHEN C  - STORY MID EXHAUST FAN\n   ** Severe  ** Node Connection Error, Node=\"ZONE FULLSERVICERESTAURANT KITCHEN C  - STORY MID2 EXHAUST FAN INLET AIR NODE\", Inlet node did not find an appropriate matching \"outlet\" node.\n   **   ~~~   ** If this is an outdoor air inlet node, it must be listed in an OutdoorAir:Node or OutdoorAir:NodeList object.\n   **   ~~~   ** Reference Object=FAN:ZONEEXHAUST, Name=ZONE FULLSERVICERESTAURANT KITCHEN C  - STORY MID2 EXHAUST FAN\n   ** Severe  ** Node Connection Error, Node=\"ZONE FULLSERVICERESTAURANT KITCHEN C END_B - STORY MID2 EXHAUST FAN INLET AIR NODE\", Inlet node did not find an appropriate matching \"outlet\" node.\n   **   ~~~   ** If this is an outdoor air inlet node, it must be listed in an OutdoorAir:Node or OutdoorAir:NodeList object.\n   **   ~~~   ** Reference Object=FAN:ZONEEXHAUST, Name=ZONE FULLSERVICERESTAURANT KITCHEN C END_B - STORY MID2 EXHAUST FAN\n   ** Severe  ** Node Connection Error, Node=\"ZONE LARGEHOTEL KITCHEN A  - STORY GROUND EXHAUST FAN INLET AIR NODE\", Inlet node did not find an appropriate matching \"outlet\" node.\n   **   ~~~   ** If this is an outdoor air inlet node, it must be listed in an OutdoorAir:Node or OutdoorAir:NodeList object.\n   **   ~~~   ** Reference Object=FAN:ZONEEXHAUST, Name=ZONE LARGEHOTEL KITCHEN A  - STORY GROUND EXHAUST FAN\n   ** Severe  ** Node Connection Error, Node=\"ZONE LARGEHOTEL KITCHEN B  - STORY GROUND EXHAUST FAN INLET AIR NODE\", Inlet node did not find an appropriate matching \"outlet\" node.\n   **   ~~~   ** If this is an outdoor air inlet node, it must be listed in an OutdoorAir:Node or OutdoorAir:NodeList object.\n   **   ~~~   ** Reference Object=FAN:ZONEEXHAUST, Name=ZONE LARGEHOTEL KITCHEN B  - STORY GROUND EXHAUST FAN\n   ** Severe  ** Node Connection Error, Node=\"ZONE LARGEHOTEL KITCHEN C  - STORY GROUND EXHAUST FAN INLET AIR NODE\", Inlet node did not find an appropriate matching \"outlet\" node.\n   **   ~~~   ** If this is an outdoor air inlet node, it must be listed in an OutdoorAir:Node or OutdoorAir:NodeList object.\n   **   ~~~   ** Reference Object=FAN:ZONEEXHAUST, Name=ZONE LARGEHOTEL KITCHEN C  - STORY GROUND EXHAUST FAN\n   ************* There were 12 node connection errors noted.\n   ************* Beginning Simulation\n   ** Warning ** Output:Table:Monthly requested with SimulationControl Run Simulation for Weather File Run Periods set to No so Output:Table:Monthly will not be generated\n   ** Warning ** Plant Loop: CONDENSER WATER LOOP Demand Side is storing excess heat the majority of the time.\n   ** Warning ** Plant Loop: CONDENSER WATER LOOP Supply Side is storing excess heat the majority of the time.\n   ************* Simulation Error Summary *************\n   ************* There are 8 unused objects in input.\n   ************* Use Output:Diagnostics,DisplayUnusedObjects; to see them.\n   ************* There are 16 unused schedules in input.\n   ************* There are 17 unused week schedules in input.\n   ************* There are 56 unused day schedules in input.\n   ************* Use Output:Diagnostics,DisplayUnusedSchedules; to see them.\n   *************\n   ************* ===== Final Error Summary =====\n   ************* The following error categories occurred.  Consider correcting or noting.\n   ************* Node Connection Errors\n   ************* ..Node connection errors are often caused by spelling mistakes in a node name field.\n   ************* ..To track down the problem, search the idf file for each node name listed to see if it\n   ************* ..occurs in the expected input fields.\n   ************* Nominally Unused Constructions\n   ************* ..The nominally unused constructions warning is provided to alert you to potential conditions that can cause\n   ************* ..extra time during simulation. Each construction is calculated by the algorithm indicated in the HeatBalanceAlgorithm\n   ************* ..object. You may remove the constructions indicated (when you use the DisplayExtraWarnings option).\n   *************\n   ************* EnergyPlus Warmup Error Summary. During Warmup: 0 Warning; 0 Severe Errors.\n   ************* EnergyPlus Sizing Error Summary. During Sizing: 22 Warning; 12 Severe Errors.\n   ************* EnergyPlus Completed Successfully-- 45 Warning; 24 Severe Errors; Elapsed Time=00hr 00min 31.04sec\n",
   "hash" : "9EBE0E35",
   "seed_file" : "in.osm",
   "started_at" : "20191231T200226Z",
   "steps" : [],
   "updated_at" : "20191231T200304Z",
   "weather_file" : "in.epw"
}
