{
   "completed_at" : "20191231T200157Z",
   "completed_status" : "Success",
   "current_step" : 11,
   "description" : "Hospital 2",
   "eplusout_err" : "Program Version,EnergyPlus, Version 9.1.0-08d2e308bb, YMD=2019.12.31 12:58,\n   ** Warning ** Timestep: Requested number (1) is less than the suggested minimum of 4.\n   **   ~~~   ** Please see entry for Timestep in Input/Output Reference for discussion of considerations.\n   ************* Beginning Zone Sizing Calculations\n   ** Warning ** ProcessScheduleInput: Schedule:Day:Interval=\"78 SPACE(S) OCC SCH DEFAULT\", Blank Schedule Type Limits Name input -- will not be validated.\n   ** Warning ** ProcessScheduleInput: Schedule:Day:Interval=\"78 SPACE(S) OCC SCH SATURDAY\", Blank Schedule Type Limits Name input -- will not be validated.\n   ** Warning ** ProcessScheduleInput: Schedule:Day:Interval=\"78 SPACE(S) OCC SCH SUMMER DESIGN DAY\", Blank Schedule Type Limits Name input -- will not be validated.\n   ** Warning ** ProcessScheduleInput: Schedule:Day:Interval=\"78 SPACE(S) OCC SCH SUNDAY\", Blank Schedule Type Limits Name input -- will not be validated.\n   ** Warning ** ProcessScheduleInput: Schedule:Day:Interval=\"78 SPACE(S) OCC SCH WINTER DESIGN DAY\", Blank Schedule Type Limits Name input -- will not be validated.\n   ** Warning ** ProcessScheduleInput: Schedule:Day:Interval=\"ECONOMIZER MAX OA FRACTION 70 PCT DEFAULT\", Blank Schedule Type Limits Name input -- will not be validated.\n   ** Warning ** ProcessScheduleInput: Schedule:Day:Interval=\"SCHEDULE DAY 1\", Blank Schedule Type Limits Name input -- will not be validated.\n   ** Warning ** ProcessScheduleInput: Schedule:Day:Interval=\"SCHEDULE DAY 2\", Blank Schedule Type Limits Name input -- will not be validated.\n   ** Warning ** ProcessScheduleInput: Schedule:Day:Interval=\"SCHEDULE DAY 3\", Blank Schedule Type Limits Name input -- will not be validated.\n   ** Warning ** ProcessScheduleInput: Schedule:Day:Interval=\"SCHEDULE DAY 4\", Blank Schedule Type Limits Name input -- will not be validated.\n   ** Warning ** ProcessScheduleInput: Schedule:Year=\"ECONOMIZER MAX OA FRACTION 70 PCT\", Blank Schedule Type Limits Name input -- will not be validated.\n   ** Warning ** ProcessScheduleInput: Schedule:Year=\"ELEVATOR SCHEDULE\", Blank Schedule Type Limits Name input -- will not be validated.\n   ** Warning ** ProcessScheduleInput: Schedule:Constant=\"ALWAYS OFF DISCRETE\", Blank Schedule Type Limits Name input -- will not be validated.\n   ** Warning ** ProcessScheduleInput: Schedule:Constant=\"ALWAYS ON CONTINUOUS\", Blank Schedule Type Limits Name input -- will not be validated.\n   ** Warning ** CheckUsedConstructions: There are 10 nominally unused constructions in input.\n   **   ~~~   ** For explicit details on each unused construction, use Output:Diagnostics,DisplayExtraWarnings;\n   ** Warning ** DetermineShadowingCombinations: There are 5 surfaces which are receiving surfaces and are non-convex.\n   **   ~~~   ** ...Shadowing values may be inaccurate. Check .shd report file for more surface shading details\n   **   ~~~   ** ...Add Output:Diagnostics,DisplayExtraWarnings; to see individual warnings for each surface.\n   ** Warning ** DeterminePolygonOverlap: Too many figures [>15000]  detected in an overlap calculation. Use Output:Diagnostics,DisplayExtraWarnings; for more details.\n   ************* Beginning System Sizing Calculations\n   ** Warning ** Since Zone Minimum Air Flow Input Method = CONSTANT, input for Fixed Minimum Air Flow Rate will be ignored.\n   **   ~~~   ** Occurs in AirTerminal:SingleDuct:VAV:Reheat = BUILDING STORY 1 THERMALZONE VAV TERMINAL\n   ** Warning ** Since Damper Heating Action = NORMAL, input for Maximum Flow Fraction During Reheat will be ignored.\n   **   ~~~   ** Occurs in AirTerminal:SingleDuct:VAV:Reheat = BUILDING STORY 1 THERMALZONE VAV TERMINAL\n   ** Warning ** Since Zone Minimum Air Flow Input Method = CONSTANT, input for Fixed Minimum Air Flow Rate will be ignored.\n   **   ~~~   ** Occurs in AirTerminal:SingleDuct:VAV:Reheat = BUILDING STORY 2 THERMALZONE VAV TERMINAL\n   ** Warning ** Since Damper Heating Action = NORMAL, input for Maximum Flow Fraction During Reheat will be ignored.\n   **   ~~~   ** Occurs in AirTerminal:SingleDuct:VAV:Reheat = BUILDING STORY 2 THERMALZONE VAV TERMINAL\n   ** Severe  ** InitFans: Fan=[Fan:ZoneExhaust,ZONE HOSPITAL KITCHEN A  - STORY GROUND EXHAUST FAN] is not on any ZoneHVAC:EquipmentList.  It will not be simulated.\n   ** Severe  ** InitFans: Fan=[Fan:ZoneExhaust,ZONE HOSPITAL KITCHEN A  - STORY MID EXHAUST FAN] is not on any ZoneHVAC:EquipmentList.  It will not be simulated.\n   ** Severe  ** InitFans: Fan=[Fan:ZoneExhaust,ZONE HOSPITAL KITCHEN A END_A - STORY GROUND EXHAUST FAN] is not on any ZoneHVAC:EquipmentList.  It will not be simulated.\n   ** Severe  ** InitFans: Fan=[Fan:ZoneExhaust,ZONE HOSPITAL KITCHEN B  - STORY GROUND EXHAUST FAN] is not on any ZoneHVAC:EquipmentList.  It will not be simulated.\n   ** Severe  ** InitFans: Fan=[Fan:ZoneExhaust,ZONE HOSPITAL KITCHEN B  - STORY MID EXHAUST FAN] is not on any ZoneHVAC:EquipmentList.  It will not be simulated.\n   ** Severe  ** InitFans: Fan=[Fan:ZoneExhaust,ZONE HOSPITAL KITCHEN B END_A - STORY GROUND EXHAUST FAN] is not on any ZoneHVAC:EquipmentList.  It will not be simulated.\n   ** Severe  ** InitFans: Fan=[Fan:ZoneExhaust,ZONE HOSPITAL KITCHEN C  - STORY GROUND EXHAUST FAN] is not on any ZoneHVAC:EquipmentList.  It will not be simulated.\n   ** Severe  ** InitFans: Fan=[Fan:ZoneExhaust,ZONE HOSPITAL KITCHEN C  - STORY MID EXHAUST FAN] is not on any ZoneHVAC:EquipmentList.  It will not be simulated.\n   ** Severe  ** InitFans: Fan=[Fan:ZoneExhaust,ZONE HOSPITAL KITCHEN C END_A - STORY GROUND EXHAUST FAN] is not on any ZoneHVAC:EquipmentList.  It will not be simulated.\n   ************* Beginning Plant Sizing Calculations\n   ** Warning ** The Standard Ratings is calculated for Coil:Cooling:DX:SingleSpeed = BUILDING STORY 3 THERMALZONE PTAC 1SPD DX AC CLG COIL 2416KBTU/HR 9.3EER but not at the AHRI test condition due to curve out of bound.\n   **   ~~~   **  Review the Standard Ratings calculations in the Engineering Reference for this coil type. Also, use Output:Diagnostics, DisplayExtraWarnings for further guidance.\n   ** Warning ** In calculating the design coil UA for Coil:Cooling:Water 1 ZONE VAV CLG COIL\n   **   ~~~   ** the coil bypass factor is unrealistically large;\n   **   ~~~   ** The initial design conditions are: Tair,in = 24.0420\n   **   ~~~   **                                    Wair,in = 9.380657E-003\n   **   ~~~   **                                    Twater,in = 6.6667\n   **   ~~~   **                                    Tair,out = 10.8618\n   **   ~~~   **                                    Wair,out = 8.500000E-003\n   ** Warning ** In calculating the design coil UA for Coil:Cooling:Water 1 ZONE VAV 1 CLG COIL\n   **   ~~~   ** the coil bypass factor is unrealistically large;\n   **   ~~~   ** The initial design conditions are: Tair,in = 25.0928\n   **   ~~~   **                                    Wair,in = 9.515833E-003\n   **   ~~~   **                                    Twater,in = 6.6667\n   **   ~~~   **                                    Tair,out = 10.8623\n   **   ~~~   **                                    Wair,out = 8.500000E-003\n   ** Warning ** GetElectricEIRChillerInput: Chiller:Electric:EIR=\"90.1-2004 WATERCOOLED  ROTARY SCREW CHILLER 0 447TONS 0.6KW/TON\"\n   **   ~~~   ** Energy input ratio as a function of temperature curve output is not equal to 1.0 (+ or - 10%) at reference conditions.\n   **   ~~~   ** Curve output at reference conditions = 1.205\n   ** Warning ** Check input. Pump nominal power or motor efficiency is set to 0, for pump=BOOSTER WATER LOOP PUMP\n   ** Warning ** Missing temperature setpoint for LeavingSetpointModulated mode Boiler named BOILER 8742KBTU/HR 0.75 THERMAL EFF\n   **   ~~~   **   A temperature setpoint is needed at the outlet node of a boiler in variable flow mode\n   **   ~~~   **   use a Setpoint Manager to establish a setpoint at the boiler outlet node \n   **   ~~~   **   or use an EMS actuator to establish a setpoint at the boiler outlet node \n   **   ~~~   **   The overall loop setpoint will be assumed for Boiler. The simulation continues ... \n   ** Warning ** Output:Meter: invalid Key Name=\"HEATING:ADDITIONALFUEL\" - not found.\n   ** Warning ** Output:Meter: invalid Key Name=\"HEATING:DISTRICTCOOLING\" - not found.\n   ** Warning ** Output:Meter: invalid Key Name=\"HEATING:DISTRICTHEATING\" - not found.\n   ** Warning ** Output:Meter: invalid Key Name=\"HEATING:WATER\" - not found.\n   ** Warning ** Output:Meter: invalid Key Name=\"COOLING:GAS\" - not found.\n   ** Warning ** Output:Meter: invalid Key Name=\"COOLING:ADDITIONALFUEL\" - not found.\n   ** Warning ** Output:Meter: invalid Key Name=\"COOLING:DISTRICTCOOLING\" - not found.\n   ** Warning ** Output:Meter: invalid Key Name=\"COOLING:DISTRICTHEATING\" - not found.\n   ** Warning ** Output:Meter: invalid Key Name=\"COOLING:WATER\" - not found.\n   ** Warning ** Output:Meter: invalid Key Name=\"INTERIORLIGHTS:GAS\" - not found.\n   ** Warning ** Output:Meter: invalid Key Name=\"INTERIORLIGHTS:ADDITIONALFUEL\" - not found.\n   ** Warning ** Output:Meter: invalid Key Name=\"INTERIORLIGHTS:DISTRICTCOOLING\" - not found.\n   ** Warning ** Output:Meter: invalid Key Name=\"INTERIORLIGHTS:DISTRICTHEATING\" - not found.\n   ** Warning ** Output:Meter: invalid Key Name=\"INTERIORLIGHTS:WATER\" - not found.\n   ** Warning ** Output:Meter: invalid Key Name=\"EXTERIORLIGHTS:GAS\" - not found.\n   ** Warning ** Output:Meter: invalid Key Name=\"EXTERIORLIGHTS:ADDITIONALFUEL\" - not found.\n   ** Warning ** Output:Meter: invalid Key Name=\"EXTERIORLIGHTS:DISTRICTCOOLING\" - not found.\n   ** Warning ** Output:Meter: invalid Key Name=\"EXTERIORLIGHTS:DISTRICTHEATING\" - not found.\n   ** Warning ** Output:Meter: invalid Key Name=\"EXTERIORLIGHTS:WATER\" - not found.\n   ** Warning ** Output:Meter: invalid Key Name=\"INTERIOREQUIPMENT:ADDITIONALFUEL\" - not found.\n   ** Warning ** Output:Meter: invalid Key Name=\"INTERIOREQUIPMENT:DISTRICTCOOLING\" - not found.\n   ** Warning ** Output:Meter: invalid Key Name=\"INTERIOREQUIPMENT:DISTRICTHEATING\" - not found.\n   ** Warning ** Output:Meter: invalid Key Name=\"INTERIOREQUIPMENT:WATER\" - not found.\n   ** Warning ** Output:Meter: invalid Key Name=\"EXTERIOREQUIPMENT:ELECTRICITY\" - not found.\n   ** Warning ** Output:Meter: invalid Key Name=\"EXTERIOREQUIPMENT:GAS\" - not found.\n   ** Warning ** Output:Meter: invalid Key Name=\"EXTERIOREQUIPMENT:ADDITIONALFUEL\" - not found.\n   ** Warning ** Output:Meter: invalid Key Name=\"EXTERIOREQUIPMENT:DISTRICTCOOLING\" - not found.\n   ** Warning ** Output:Meter: invalid Key Name=\"EXTERIOREQUIPMENT:DISTRICTHEATING\" - not found.\n   ** Warning ** Output:Meter: invalid Key Name=\"EXTERIOREQUIPMENT:WATER\" - not found.\n   ** Warning ** Output:Meter: invalid Key Name=\"FANS:GAS\" - not found.\n   ** Warning ** Output:Meter: invalid Key Name=\"FANS:ADDITIONALFUEL\" - not found.\n   ** Warning ** Output:Meter: invalid Key Name=\"FANS:DISTRICTCOOLING\" - not found.\n   ** Warning ** Output:Meter: invalid Key Name=\"FANS:DISTRICTHEATING\" - not found.\n   ** Warning ** Output:Meter: invalid Key Name=\"FANS:WATER\" - not found.\n   ** Warning ** Output:Meter: invalid Key Name=\"PUMPS:GAS\" - not found.\n   ** Warning ** Output:Meter: invalid Key Name=\"PUMPS:ADDITIONALFUEL\" - not found.\n   ** Warning ** Output:Meter: invalid Key Name=\"PUMPS:DISTRICTCOOLING\" - not found.\n   ** Warning ** Output:Meter: invalid Key Name=\"PUMPS:DISTRICTHEATING\" - not found.\n   ** Warning ** Output:Meter: invalid Key Name=\"PUMPS:WATER\" - not found.\n   ** Warning ** Output:Meter: invalid Key Name=\"HEATREJECTION:GAS\" - not found.\n   ** Warning ** Output:Meter: invalid Key Name=\"HEATREJECTION:ADDITIONALFUEL\" - not found.\n   ** Warning ** Output:Meter: invalid Key Name=\"HEATREJECTION:DISTRICTCOOLING\" - not found.\n   ** Warning ** Output:Meter: invalid Key Name=\"HEATREJECTION:DISTRICTHEATING\" - not found.\n   ** Warning ** Output:Meter: invalid Key Name=\"HUMIDIFIER:ELECTRICITY\" - not found.\n   ** Warning ** Output:Meter: invalid Key Name=\"HUMIDIFIER:GAS\" - not found.\n   ** Warning ** Output:Meter: invalid Key Name=\"HUMIDIFIER:ADDITIONALFUEL\" - not found.\n   ** Warning ** Output:Meter: invalid Key Name=\"HUMIDIFIER:DISTRICTCOOLING\" - not found.\n   ** Warning ** Output:Meter: invalid Key Name=\"HUMIDIFIER:DISTRICTHEATING\" - not found.\n   ** Warning ** Output:Meter: invalid Key Name=\"HUMIDIFIER:WATER\" - not found.\n   ** Warning ** Output:Meter: invalid Key Name=\"HEATRECOVERY:ELECTRICITY\" - not found.\n   ** Warning ** Output:Meter: invalid Key Name=\"HEATRECOVERY:GAS\" - not found.\n   ** Warning ** Output:Meter: invalid Key Name=\"HEATRECOVERY:ADDITIONALFUEL\" - not found.\n   ** Warning ** Output:Meter: invalid Key Name=\"HEATRECOVERY:DISTRICTCOOLING\" - not found.\n   ** Warning ** Output:Meter: invalid Key Name=\"HEATRECOVERY:DISTRICTHEATING\" - not found.\n   ** Warning ** Output:Meter: invalid Key Name=\"HEATRECOVERY:WATER\" - not found.\n   ** Warning ** Output:Meter: invalid Key Name=\"WATERSYSTEMS:ADDITIONALFUEL\" - not found.\n   ** Warning ** Output:Meter: invalid Key Name=\"WATERSYSTEMS:DISTRICTCOOLING\" - not found.\n   ** Warning ** Output:Meter: invalid Key Name=\"WATERSYSTEMS:DISTRICTHEATING\" - not found.\n   ** Warning ** Output:Meter: invalid Key Name=\"REFRIGERATION:ELECTRICITY\" - not found.\n   ** Warning ** Output:Meter: invalid Key Name=\"REFRIGERATION:GAS\" - not found.\n   ** Warning ** Output:Meter: invalid Key Name=\"REFRIGERATION:ADDITIONALFUEL\" - not found.\n   ** Warning ** Output:Meter: invalid Key Name=\"REFRIGERATION:DISTRICTCOOLING\" - not found.\n   ** Warning ** Output:Meter: invalid Key Name=\"REFRIGERATION:DISTRICTHEATING\" - not found.\n   ** Warning ** Output:Meter: invalid Key Name=\"REFRIGERATION:WATER\" - not found.\n   ** Warning ** Output:Meter: invalid Key Name=\"GENERATORS:ELECTRICITY\" - not found.\n   ** Warning ** Output:Meter: invalid Key Name=\"GENERATORS:GAS\" - not found.\n   ** Warning ** Output:Meter: invalid Key Name=\"GENERATORS:ADDITIONALFUEL\" - not found.\n   ** Warning ** Output:Meter: invalid Key Name=\"GENERATORS:DISTRICTCOOLING\" - not found.\n   ** Warning ** Output:Meter: invalid Key Name=\"GENERATORS:DISTRICTHEATING\" - not found.\n   ** Warning ** Output:Meter: invalid Key Name=\"GENERATORS:WATER\" - not found.\n   ** Warning ** Output:Meter: invalid Key Name=\"ADDITIONALFUEL:FACILITY\" - not found.\n   ** Warning ** Output:Meter: invalid Key Name=\"DISTRICTCOOLING:FACILITY\" - not found.\n   ** Warning ** Output:Meter: invalid Key Name=\"DISTRICTHEATING:FACILITY\" - not found.\n   ** Warning ** Output:Meter: invalid Key Name=\"DISTRICTCOOLING:FACILITY\" - not found.\n   ** Warning ** Output:Meter: invalid Key Name=\"DISTRICTHEATING:FACILITY\" - not found.\n   ** Warning ** Output:Meter:MeterFileOnly requested for \"Electricity:Facility\" (Hourly), already on \"Output:Meter\". Will report to both eplusout.eso and eplusout.mtr\n   ** Warning ** Output:Meter:MeterFileOnly: invalid Key Name=\"ELECTRICITYPRODUCED:FACILITY\" - not found.\n   ** Warning ** Output:Meter:MeterFileOnly requested for \"Gas:Facility\" (Hourly), already on \"Output:Meter\". Will report to both eplusout.eso and eplusout.mtr\n   ** Warning ** Output:Meter:MeterFileOnly: invalid Key Name=\"DISTRICTCOOLING:FACILITY\" - not found.\n   ** Warning ** Output:Meter:MeterFileOnly: invalid Key Name=\"DISTRICTHEATING:FACILITY\" - not found.\n   ** Warning ** Output:Meter:MeterFileOnly requested for \"Electricity:Facility\" (TimeStep), already on \"Output:Meter\". Will report to both eplusout.eso and eplusout.mtr\n   ************* Testing Individual Branch Integrity\n   ************* All Branches passed integrity testing\n   ************* Testing Individual Supply Air Path Integrity\n   ************* All Supply Air Paths passed integrity testing\n   ************* Testing Individual Return Air Path Integrity\n   ************* All Return Air Paths passed integrity testing\n   ** Severe  ** Node Connection Error, Node=\"ZONE HOSPITAL KITCHEN A  - STORY GROUND EXHAUST FAN INLET AIR NODE\", Inlet node did not find an appropriate matching \"outlet\" node.\n   **   ~~~   ** If this is an outdoor air inlet node, it must be listed in an OutdoorAir:Node or OutdoorAir:NodeList object.\n   **   ~~~   ** Reference Object=FAN:ZONEEXHAUST, Name=ZONE HOSPITAL KITCHEN A  - STORY GROUND EXHAUST FAN\n   ** Severe  ** Node Connection Error, Node=\"ZONE HOSPITAL KITCHEN A  - STORY MID EXHAUST FAN INLET AIR NODE\", Inlet node did not find an appropriate matching \"outlet\" node.\n   **   ~~~   ** If this is an outdoor air inlet node, it must be listed in an OutdoorAir:Node or OutdoorAir:NodeList object.\n   **   ~~~   ** Reference Object=FAN:ZONEEXHAUST, Name=ZONE HOSPITAL KITCHEN A  - STORY MID EXHAUST FAN\n   ** Severe  ** Node Connection Error, Node=\"ZONE HOSPITAL KITCHEN A END_A - STORY GROUND EXHAUST FAN INLET AIR NODE\", Inlet node did not find an appropriate matching \"outlet\" node.\n   **   ~~~   ** If this is an outdoor air inlet node, it must be listed in an OutdoorAir:Node or OutdoorAir:NodeList object.\n   **   ~~~   ** Reference Object=FAN:ZONEEXHAUST, Name=ZONE HOSPITAL KITCHEN A END_A - STORY GROUND EXHAUST FAN\n   ** Severe  ** Node Connection Error, Node=\"ZONE HOSPITAL KITCHEN B  - STORY GROUND EXHAUST FAN INLET AIR NODE\", Inlet node did not find an appropriate matching \"outlet\" node.\n   **   ~~~   ** If this is an outdoor air inlet node, it must be listed in an OutdoorAir:Node or OutdoorAir:NodeList object.\n   **   ~~~   ** Reference Object=FAN:ZONEEXHAUST, Name=ZONE HOSPITAL KITCHEN B  - STORY GROUND EXHAUST FAN\n   ** Severe  ** Node Connection Error, Node=\"ZONE HOSPITAL KITCHEN B  - STORY MID EXHAUST FAN INLET AIR NODE\", Inlet node did not find an appropriate matching \"outlet\" node.\n   **   ~~~   ** If this is an outdoor air inlet node, it must be listed in an OutdoorAir:Node or OutdoorAir:NodeList object.\n   **   ~~~   ** Reference Object=FAN:ZONEEXHAUST, Name=ZONE HOSPITAL KITCHEN B  - STORY MID EXHAUST FAN\n   ** Severe  ** Node Connection Error, Node=\"ZONE HOSPITAL KITCHEN B END_A - STORY GROUND EXHAUST FAN INLET AIR NODE\", Inlet node did not find an appropriate matching \"outlet\" node.\n   **   ~~~   ** If this is an outdoor air inlet node, it must be listed in an OutdoorAir:Node or OutdoorAir:NodeList object.\n   **   ~~~   ** Reference Object=FAN:ZONEEXHAUST, Name=ZONE HOSPITAL KITCHEN B END_A - STORY GROUND EXHAUST FAN\n   ** Severe  ** Node Connection Error, Node=\"ZONE HOSPITAL KITCHEN C  - STORY GROUND EXHAUST FAN INLET AIR NODE\", Inlet node did not find an appropriate matching \"outlet\" node.\n   **   ~~~   ** If this is an outdoor air inlet node, it must be listed in an OutdoorAir:Node or OutdoorAir:NodeList object.\n   **   ~~~   ** Reference Object=FAN:ZONEEXHAUST, Name=ZONE HOSPITAL KITCHEN C  - STORY GROUND EXHAUST FAN\n   ** Severe  ** Node Connection Error, Node=\"ZONE HOSPITAL KITCHEN C  - STORY MID EXHAUST FAN INLET AIR NODE\", Inlet node did not find an appropriate matching \"outlet\" node.\n   **   ~~~   ** If this is an outdoor air inlet node, it must be listed in an OutdoorAir:Node or OutdoorAir:NodeList object.\n   **   ~~~   ** Reference Object=FAN:ZONEEXHAUST, Name=ZONE HOSPITAL KITCHEN C  - STORY MID EXHAUST FAN\n   ** Severe  ** Node Connection Error, Node=\"ZONE HOSPITAL KITCHEN C END_A - STORY GROUND EXHAUST FAN INLET AIR NODE\", Inlet node did not find an appropriate matching \"outlet\" node.\n   **   ~~~   ** If this is an outdoor air inlet node, it must be listed in an OutdoorAir:Node or OutdoorAir:NodeList object.\n   **   ~~~   ** Reference Object=FAN:ZONEEXHAUST, Name=ZONE HOSPITAL KITCHEN C END_A - STORY GROUND EXHAUST FAN\n   ************* There were 9 node connection errors noted.\n   ************* Beginning Simulation\n   ** Warning ** Processing Monthly Tabular Reports: Variable names not valid for this simulation\n   **   ~~~   ** ...use Output:Diagnostics,DisplayExtraWarnings; to show more details on individual variables.\n   ** Warning ** Plant Loop: HOSPITAL KITCHEN - 90.1-2004 SERVICE WATER LOOP Demand Side is storing excess heat the majority of the time.\n   ** Warning ** Plant Loop: HOSPITAL KITCHEN - 90.1-2004 SERVICE WATER LOOP Supply Side is storing excess heat the majority of the time.\n   ** Warning ** The resource referenced by LifeCycleCost:UsePriceEscalation= \"U.S. AVG  COMMERCIAL-ELECTRICITY\" has no energy cost. \n   **   ~~~   ** ... It is likely that the wrong resource is used. The resource should match the meter used in Utility:Tariff.\n   ** Warning ** The resource referenced by LifeCycleCost:UsePriceEscalation= \"U.S. AVG  COMMERCIAL-DISTILLATE OIL\" has no energy cost. \n   **   ~~~   ** ... It is likely that the wrong resource is used. The resource should match the meter used in Utility:Tariff.\n   ** Warning ** The resource referenced by LifeCycleCost:UsePriceEscalation= \"U.S. AVG  COMMERCIAL-RESIDUAL OIL\" has no energy cost. \n   **   ~~~   ** ... It is likely that the wrong resource is used. The resource should match the meter used in Utility:Tariff.\n   ** Warning ** The resource referenced by LifeCycleCost:UsePriceEscalation= \"U.S. AVG  COMMERCIAL-NATURAL GAS\" has no energy cost. \n   **   ~~~   ** ... It is likely that the wrong resource is used. The resource should match the meter used in Utility:Tariff.\n   ** Warning ** The resource referenced by LifeCycleCost:UsePriceEscalation= \"U.S. AVG  COMMERCIAL-COAL\" has no energy cost. \n   **   ~~~   ** ... It is likely that the wrong resource is used. The resource should match the meter used in Utility:Tariff.\n   ************* Simulation Error Summary *************\n   ** Warning ** The following Report Variables were requested but not generated -- check.rdd file\n   **   ~~~   ** Either the IDF did not contain these elements, the variable name is misspelled,\n   **   ~~~   ** or the requested variable is an advanced output which requires Output : Diagnostics, DisplayAdvancedReportVariables;\n   ************* Key=*, VarName=DISTRICT COOLING CHILLED WATER RATE, Frequency=Hourly\n   ************* Key=*, VarName=DISTRICT COOLING MASS FLOW RATE, Frequency=Hourly\n   ************* Key=*, VarName=DISTRICT COOLING INLET TEMPERATURE, Frequency=Hourly\n   ************* Key=*, VarName=DISTRICT COOLING OUTLET TEMPERATURE, Frequency=Hourly\n   ************* Key=*, VarName=DISTRICT HEATING HOT WATER RATE, Frequency=Hourly\n   ************* Key=*, VarName=DISTRICT HEATING MASS FLOW RATE, Frequency=Hourly\n   ************* Key=*, VarName=DISTRICT HEATING INLET TEMPERATURE, Frequency=Hourly\n   ************* Key=*, VarName=DISTRICT HEATING OUTLET TEMPERATURE, Frequency=Hourly\n   ************* There are 8 unused schedules in input.\n   ************* There are 9 unused week schedules in input.\n   ************* There are 20 unused day schedules in input.\n   ************* Use Output:Diagnostics,DisplayUnusedSchedules; to see them.\n   *************\n   ************* ===== Final Error Summary =====\n   ************* The following error categories occurred.  Consider correcting or noting.\n   ************* Node Connection Errors\n   ************* ..Node connection errors are often caused by spelling mistakes in a node name field.\n   ************* ..To track down the problem, search the idf file for each node name listed to see if it\n   ************* ..occurs in the expected input fields.\n   ************* Nominally Unused Constructions\n   ************* ..The nominally unused constructions warning is provided to alert you to potential conditions that can cause\n   ************* ..extra time during simulation. Each construction is calculated by the algorithm indicated in the HeatBalanceAlgorithm\n   ************* ..object. You may remove the constructions indicated (when you use the DisplayExtraWarnings option).\n   *************\n   ************* EnergyPlus Warmup Error Summary. During Warmup: 0 Warning; 0 Severe Errors.\n   ************* EnergyPlus Sizing Error Summary. During Sizing: 20 Warning; 9 Severe Errors.\n   ************* EnergyPlus Completed Successfully-- 122 Warning; 18 Severe Errors; Elapsed Time=00hr 02min 58.60sec\n",
   "file_paths" : [
      "/Users/tkwasnik/github/urbanopt-example-geojson-reopt-project/run/baseline_scenario/9/generated_files",
      "/Users/tkwasnik/github/urbanopt-example-geojson-reopt-project/mappers/../weather/",
      "/Users/tkwasnik/github/urbanopt-example-geojson-reopt-project/.bundle/install/ruby/2.2.0/gems/openstudio-common-measures-0.1.0/lib/files",
      "/Users/tkwasnik/github/urbanopt-example-geojson-reopt-project/.bundle/install/ruby/2.2.0/gems/openstudio-extension-0.1.3/lib/files",
      "/Users/tkwasnik/github/urbanopt-example-geojson-reopt-project/weather",
      "/Users/tkwasnik/github/urbanopt-example-geojson-reopt-project/.bundle/install/ruby/2.2.0/bundler/gems/urbanopt-reopt-gem-9d3a2c58ed2e/lib/files",
      "/Users/tkwasnik/github/urbanopt-example-geojson-reopt-project/.bundle/install/ruby/2.2.0/gems/openstudio-model-articulation-0.1.0/lib/files",
      "./files",
      "./weather",
      "../../files",
      "../../weather",
      "./"
   ],
   "hash" : "FEBCFC5F",
   "measure_paths" : [
      "/Users/tkwasnik/github/urbanopt-example-geojson-reopt-project/.bundle/install/ruby/2.2.0/bundler/gems/urbanopt-geojson-gem-b4618102cfc8/lib/measures",
      "/Users/tkwasnik/github/urbanopt-example-geojson-reopt-project/.bundle/install/ruby/2.2.0/gems/openstudio-common-measures-0.1.0/lib/measures",
      "/Users/tkwasnik/github/urbanopt-example-geojson-reopt-project/.bundle/install/ruby/2.2.0/gems/openstudio-extension-0.1.3/lib/measures",
      "/Users/tkwasnik/github/urbanopt-example-geojson-reopt-project/.bundle/install/ruby/2.2.0/bundler/gems/urbanopt-scenario-gem-da28d381c70f/lib/measures",
      "/Users/tkwasnik/github/urbanopt-example-geojson-reopt-project/.bundle/install/ruby/2.2.0/bundler/gems/urbanopt-reopt-gem-9d3a2c58ed2e/lib/measures",
      "/Users/tkwasnik/github/urbanopt-example-geojson-reopt-project/.bundle/install/ruby/2.2.0/gems/openstudio-model-articulation-0.1.0/lib/measures"
   ],
   "name" : "Hospital 2",
   "run_directory" : "/Users/tkwasnik/github/urbanopt-example-geojson-reopt-project/run/baseline_scenario/9",
   "seed_file" : null,
   "started_at" : "20191231T195710Z",
   "steps" : [
      {
         "arguments" : {
            "begin_date" : "2018-01-01",
            "end_date" : "2018-12-31",
            "timesteps_per_hour" : 1
         },
         "measure_dir_name" : "set_run_period",
         "result" : {
            "completed_at" : "20191231T195710Z",
            "measure_class_name" : "SetRunPeriod",
            "measure_display_name" : "SetRunPeriod",
            "measure_name" : "set_run_period",
            "measure_taxonomy" : "Envelope.Form",
            "measure_type" : "ModelMeasure",
            "measure_uid" : "7a84292a-3975-4ab3-9284-6edabcbe750b",
            "measure_version_id" : "62323562-963d-4e61-8dc1-33935da3c01e",
            "measure_version_modified" : "20191029T231304Z",
            "measure_xml_checksum" : "2AF3A68E",
            "started_at" : "20191231T195710Z",
            "stderr" : "",
            "stdout" : "",
            "step_errors" : [],
            "step_files" : [],
            "step_info" : [],
            "step_result" : "Success",
            "step_values" : [
               {
                  "name" : "timesteps_per_hour",
                  "value" : 1
               },
               {
                  "name" : "begin_date",
                  "value" : "2018-01-01"
               },
               {
                  "name" : "end_date",
                  "value" : "2018-12-31"
               }
            ],
            "step_warnings" : []
         }
      },
      {
         "arguments" : {
            "climate_zone" : "6A",
            "weather_file_name" : "USA_NY_Buffalo-Greater.Buffalo.Intl.AP.725280_TMY3.epw"
         },
         "measure_dir_name" : "ChangeBuildingLocation",
         "result" : {
            "completed_at" : "20191231T195712Z",
            "measure_class_name" : "ChangeBuildingLocation",
            "measure_display_name" : "ChangeBuildingLocation",
            "measure_name" : "change_building_location",
            "measure_taxonomy" : "Whole Building.Space Types",
            "measure_type" : "ModelMeasure",
            "measure_uid" : "d4db4971-f5ba-11e3-a3ac-0800200c9a66",
            "measure_version_id" : "9938c101-08b8-4eaa-9eb4-4f6e5c8921b0",
            "measure_version_modified" : "20191029T231254Z",
            "measure_xml_checksum" : "057E8D9D",
            "started_at" : "20191231T195710Z",
            "stderr" : "",
            "stdout" : "[openstudio.model.YearDescription] <1> 'UseWeatherFile' is not yet a supported option for YearDescription\n[openstudio.model.YearDescription] <1> 'UseWeatherFile' is not yet a supported option for YearDescription\n",
            "step_errors" : [],
            "step_files" : [],
            "step_final_condition" : "The final weather file is Buffalo Niagara Intl Ap and the model has 3 design day objects.",
            "step_info" : [
               "city is Buffalo Niagara Intl Ap. State is NY",
               "mean dry bulb is 8.966666666666667",
               "Adding object Buffalo Niagara Intl Ap Ann Clg .4% Condns WB=>MDB",
               "Adding object Buffalo Niagara Intl Ap Ann Clg .4% Condns DB=>MWB",
               "Adding object Buffalo Niagara Intl Ap Ann Htg 99.6% Condns DB",
               "Setting Climate Zone to 6A"
            ],
            "step_initial_condition" : "No weather file is set. The model has 0 design day objects",
            "step_result" : "Success",
            "step_values" : [
               {
                  "name" : "weather_file_name",
                  "value" : "USA_NY_Buffalo-Greater.Buffalo.Intl.AP.725280_TMY3.epw"
               },
               {
                  "name" : "climate_zone",
                  "value" : "6A"
               },
               {
                  "name" : "set_year",
                  "value" : 0
               },
               {
                  "name" : "use_upstream_args",
                  "value" : true
               }
            ],
            "step_warnings" : [ "weather_file.path is ." ]
         }
      },
      {
         "arguments" : {
            "bar_division_method" : "Multiple Space Types - Individual Stories Sliced",
            "bldg_type_a" : "Hospital",
            "bldg_type_a_num_units" : 0,
            "bldg_type_b" : "SmallOffice",
            "bldg_type_b_fract_bldg_area" : 0,
            "bldg_type_b_num_units" : 0,
            "bldg_type_c" : "SmallOffice",
            "bldg_type_c_fract_bldg_area" : 0,
            "bldg_type_c_num_units" : 0,
            "bldg_type_d" : "SmallOffice",
            "bldg_type_d_fract_bldg_area" : 0,
            "bldg_type_d_num_units" : 0,
            "building_rotation" : 0,
            "floor_height" : 10,
            "ns_to_ew_ratio" : 0,
            "num_stories_above_grade" : 3,
            "num_stories_below_grade" : 0,
            "party_wall_fraction" : 0,
            "single_floor_area" : 95657,
            "story_multiplier" : "None",
            "template" : "90.1-2004",
            "wwr" : 0
         },
         "measure_dir_name" : "create_bar_from_building_type_ratios",
         "result" : {
            "completed_at" : "20191231T195735Z",
            "measure_class_name" : "CreateBarFromBuildingTypeRatios",
            "measure_display_name" : "Create Bar From Building Type Ratios",
            "measure_name" : "create_bar_from_building_type_ratios",
            "measure_taxonomy" : "Envelope.Form",
            "measure_type" : "ModelMeasure",
            "measure_uid" : "6e3a14f8-c3c7-4e03-bc51-bef8a52e1a05",
            "measure_version_id" : "c56c06d4-914c-4bb0-a924-d3e790ec69a7",
            "measure_version_modified" : "20191030T020543Z",
            "measure_xml_checksum" : "2AF3A68E",
            "started_at" : "20191231T195719Z",
            "stderr" : "",
            "stdout" : "",
            "step_errors" : [],
            "step_files" : [],
            "step_final_condition" : "The building finished with 78 spaces.",
            "step_info" : [
               "0.0 value for aspect ratio will be replaced with smart default for Hospital of 1.33.",
               "0.0 value for window to wall ratio will be replaced with smart default for Hospital of 0.16.",
               "Creating Space Types for Hospital.",
               "Intersecting surfaces, this will create additional geometry.",
               "Created Bar envlope with floor area of 286,971 (ft^2)",
               "Target party wall fraction is 0.0. Realized fraction is 0.0"
            ],
            "step_initial_condition" : "The building started with 0 spaces.",
            "step_result" : "Success",
            "step_values" : [
               {
                  "name" : "bldg_type_a",
                  "value" : "Hospital"
               },
               {
                  "name" : "bldg_type_a_num_units",
                  "value" : 0
               },
               {
                  "name" : "bldg_type_b",
                  "value" : "SmallOffice"
               },
               {
                  "name" : "bldg_type_b_fract_bldg_area",
                  "value" : 0
               },
               {
                  "name" : "bldg_type_b_num_units",
                  "value" : 0
               },
               {
                  "name" : "bldg_type_c",
                  "value" : "SmallOffice"
               },
               {
                  "name" : "bldg_type_c_fract_bldg_area",
                  "value" : 0
               },
               {
                  "name" : "bldg_type_c_num_units",
                  "value" : 0
               },
               {
                  "name" : "bldg_type_d",
                  "value" : "SmallOffice"
               },
               {
                  "name" : "bldg_type_d_fract_bldg_area",
                  "value" : 0
               },
               {
                  "name" : "bldg_type_d_num_units",
                  "value" : 0
               },
               {
                  "name" : "single_floor_area",
                  "value" : 95657
               },
               {
                  "name" : "total_bldg_floor_area",
                  "value" : 10000
               },
               {
                  "name" : "floor_height",
                  "value" : 10
               },
               {
                  "name" : "num_stories_above_grade",
                  "value" : 3
               },
               {
                  "name" : "num_stories_below_grade",
                  "value" : 0
               },
               {
                  "name" : "building_rotation",
                  "value" : 0
               },
               {
                  "name" : "template",
                  "value" : "90.1-2004"
               },
               {
                  "name" : "ns_to_ew_ratio",
                  "value" : 0
               },
               {
                  "name" : "wwr",
                  "value" : 0
               },
               {
                  "name" : "party_wall_fraction",
                  "value" : 0
               },
               {
                  "name" : "party_wall_stories_north",
                  "value" : 0
               },
               {
                  "name" : "party_wall_stories_south",
                  "value" : 0
               },
               {
                  "name" : "party_wall_stories_east",
                  "value" : 0
               },
               {
                  "name" : "party_wall_stories_west",
                  "value" : 0
               },
               {
                  "name" : "bottom_story_ground_exposed_floor",
                  "value" : true
               },
               {
                  "name" : "top_story_exterior_exposed_roof",
                  "value" : true
               },
               {
                  "name" : "story_multiplier",
                  "value" : "None"
               },
               {
                  "name" : "bar_division_method",
                  "value" : "Multiple Space Types - Individual Stories Sliced"
               },
               {
                  "name" : "make_mid_story_surfaces_adiabatic",
                  "value" : false
               },
               {
                  "name" : "use_upstream_args",
                  "value" : true
               },
               {
                  "name" : "party_wall_fraction_actual",
                  "value" : 0
               }
            ],
            "step_warnings" : [
               "Could not find color for 90.1-2004 Hospital Corridor",
               "Could not find color for 90.1-2004 Hospital Dining",
               "Could not find color for 90.1-2004 Hospital ER_Exam",
               "Could not find color for 90.1-2004 Hospital ER_NurseStn",
               "Could not find color for 90.1-2004 Hospital ER_Trauma",
               "Could not find color for 90.1-2004 Hospital ER_Triage",
               "Could not find color for 90.1-2004 Hospital ICU_NurseStn",
               "Could not find color for 90.1-2004 Hospital ICE_Open",
               "Could not find color for 90.1-2004 Hospital ICU_PatRm",
               "Could not find color for 90.1-2004 Hospital Kitchen",
               "Could not find color for 90.1-2004 Hospital Lab",
               "Could not find color for 90.1-2004 Hospital Lobby",
               "Could not find color for 90.1-2004 Hospital NurseStn",
               "Could not find color for 90.1-2004 Hospital Office",
               "Could not find color for 90.1-2004 Hospital OR",
               "Could not find color for 90.1-2004 Hospital PatCorridor",
               "Could not find color for 90.1-2004 Hospital PatRoom",
               "Could not find color for 90.1-2004 Hospital PhysTherapy",
               "Could not find color for 90.1-2004 Hospital Radiology",
               "User-defined single floor area was used for calculation of total building floor area"
            ]
         }
      },
      {
         "arguments" : {
            "add_hvac" : false
         },
         "measure_dir_name" : "create_typical_building_from_model",
         "name" : "create_typical_building_from_model 1",
         "result" : {
            "completed_at" : "20191231T195745Z",
            "measure_class_name" : "CreateTypicalBuildingFromModel",
            "measure_display_name" : "Create Typical Building from Model",
            "measure_name" : "create_typical_building_from_model",
            "measure_taxonomy" : "Whole Building.Space Types",
            "measure_type" : "ModelMeasure",
            "measure_uid" : "339a2e3a-273c-4494-bb50-bfe586a0647c",
            "measure_version_id" : "87ebffcf-eacc-4a82-9543-d033695df855",
            "measure_version_modified" : "20191030T020543Z",
            "measure_xml_checksum" : "EE13F09F",
            "started_at" : "20191231T195735Z",
            "stderr" : "",
            "stdout" : "[utilities.geometry.joinAll] <1> Expected polygons to join together\n[utilities.geometry.joinAll] <1> Expected polygons to join together\n",
            "step_errors" : [],
            "step_files" : [],
            "step_final_condition" : "The building finished with 2287 objects.",
            "step_info" : [
               "Replacing argument named template from current measure with a value of 90.1-2004 from create_bar_from_building_type_ratios.",
               "Adding loads to space type named Hospital Radiology - 90.1-2004",
               "Adding loads to space type named Hospital PhysTherapy - 90.1-2004",
               "Adding loads to space type named Hospital PatRoom - 90.1-2004",
               "Adding loads to space type named Hospital PatCorridor - 90.1-2004",
               "Adding loads to space type named Hospital Office - 90.1-2004",
               "Adding loads to space type named Hospital Lobby - 90.1-2004",
               "Adding loads to space type named Hospital ICU_PatRm - 90.1-2004",
               "Adding loads to space type named Hospital OR - 90.1-2004",
               "Adding loads to space type named Hospital ICE_Open - 90.1-2004",
               "Adding loads to space type named Hospital ICU_NurseStn - 90.1-2004",
               "Adding loads to space type named Hospital NurseStn - 90.1-2004",
               "Adding loads to space type named Hospital ER_Triage - 90.1-2004",
               "Adding loads to space type named Hospital Corridor - 90.1-2004",
               "Adding loads to space type named Hospital ER_Trauma - 90.1-2004",
               "Adding loads to space type named Hospital ER_Exam - 90.1-2004",
               "Adding loads to space type named Hospital Kitchen - 90.1-2004",
               "Adding loads to space type named Hospital ER_NurseStn - 90.1-2004",
               "Adding loads to space type named Hospital Lab - 90.1-2004",
               "Adding loads to space type named Hospital Dining - 90.1-2004",
               "Adding default construction set named Res 90.1-2004 - Hospital - ASHRAE 169-2013-6A",
               "Adding 6.0 elevators each with power of 16,055 (W), plus lights and fans.",
               "Adding Exterior Lights named Parking Areas and Drives Def (W/ft^2) with design level of 0.15 * 80,659.",
               "Adding Exterior Lights named Building Facades Def (W/ft^2) with design level of 0.2 * 12,497.",
               "Adding Exterior Lights named Main Entries Def (W/ft) with design level of 30.0 * 153.",
               "Adding Exterior Lights named Other Doors Def (W/ft) with design level of 20.0 * 145.",
               "Adding Exterior Lights named Emergency Canopies Def (W/ft^2) with design level of 0.5 * 720.",
               "Adding 349 (cfm) of exhaust to Zone Hospital Kitchen A  - Story Ground",
               "Adding 52 (cfm) of exhaust to Zone Hospital Kitchen A  - Story Mid",
               "Adding 158 (cfm) of exhaust to Zone Hospital Kitchen A end_a - Story Ground",
               "Adding 5,542 (cfm) of exhaust to Zone Hospital Kitchen B  - Story Ground",
               "Adding 821 (cfm) of exhaust to Zone Hospital Kitchen B  - Story Mid",
               "Adding 2,501 (cfm) of exhaust to Zone Hospital Kitchen B end_a - Story Ground",
               "Adding 349 (cfm) of exhaust to Zone Hospital Kitchen C  - Story Ground",
               "Adding 52 (cfm) of exhaust to Zone Hospital Kitchen C  - Story Mid",
               "Adding 158 (cfm) of exhaust to Zone Hospital Kitchen C end_a - Story Ground",
               "Adding Hospital Kitchen - 90.1-2004 Service Water Loop to the building. It has 1 water use connections.",
               "Adding Hospital Shared Service Water Loop to the building. It has 8 water use connections.",
               "Assigning Hospital Radiology - 90.1-2004 Thermostat to thermal zones with Hospital Radiology - 90.1-2004 assigned.",
               "Assigning Hospital PhysTherapy - 90.1-2004 Thermostat to thermal zones with Hospital PhysTherapy - 90.1-2004 assigned.",
               "Assigning Hospital PatRoom - 90.1-2004 Thermostat to thermal zones with Hospital PatRoom - 90.1-2004 assigned.",
               "Assigning Hospital PatCorridor - 90.1-2004 Thermostat to thermal zones with Hospital PatCorridor - 90.1-2004 assigned.",
               "Assigning Hospital Office - 90.1-2004 Thermostat to thermal zones with Hospital Office - 90.1-2004 assigned.",
               "Assigning Hospital Lobby - 90.1-2004 Thermostat to thermal zones with Hospital Lobby - 90.1-2004 assigned.",
               "Assigning Hospital ICU_PatRm - 90.1-2004 Thermostat to thermal zones with Hospital ICU_PatRm - 90.1-2004 assigned.",
               "Assigning Hospital OR - 90.1-2004 Thermostat to thermal zones with Hospital OR - 90.1-2004 assigned.",
               "Assigning Hospital ICU_NurseStn - 90.1-2004 Thermostat to thermal zones with Hospital ICU_NurseStn - 90.1-2004 assigned.",
               "Assigning Hospital NurseStn - 90.1-2004 Thermostat to thermal zones with Hospital NurseStn - 90.1-2004 assigned.",
               "Assigning Hospital ER_Triage - 90.1-2004 Thermostat to thermal zones with Hospital ER_Triage - 90.1-2004 assigned.",
               "Assigning Hospital Corridor - 90.1-2004 Thermostat to thermal zones with Hospital Corridor - 90.1-2004 assigned.",
               "Assigning Hospital ER_Trauma - 90.1-2004 Thermostat to thermal zones with Hospital ER_Trauma - 90.1-2004 assigned.",
               "Assigning Hospital ER_Exam - 90.1-2004 Thermostat to thermal zones with Hospital ER_Exam - 90.1-2004 assigned.",
               "Assigning Hospital Kitchen - 90.1-2004 Thermostat to thermal zones with Hospital Kitchen - 90.1-2004 assigned.",
               "Assigning Hospital ER_NurseStn - 90.1-2004 Thermostat to thermal zones with Hospital ER_NurseStn - 90.1-2004 assigned.",
               "Assigning Hospital Lab - 90.1-2004 Thermostat to thermal zones with Hospital Lab - 90.1-2004 assigned.",
               "Assigning Hospital Dining - 90.1-2004 Thermostat to thermal zones with Hospital Dining - 90.1-2004 assigned.",
               "Using OpenStudio Standards version 0.2.10 with template 90.1-2004.",
               "Loading OpenStudio Standards data for 90.1-2004",
               "Hospital Radiology had no people, one has been created.",
               "Hospital Radiology set occupancy to 5.0 people/1000 ft^2.",
               "Hospital Radiology had no lights, one has been created.",
               "Hospital Radiology set LPD to 0.4 W/ft^2.",
               "Hospital Radiology had no electric equipment, one has been created.",
               "Hospital Radiology set electric EPD to 10.0 W/ft^2.",
               "Hospital Radiology had no ventilation specification, one has been created.",
               "Hospital Radiology set ventilation per area to 0.47 cfm/ft^2.",
               "Hospital Radiology set occupancy schedule to Hospital BLDG_OCC_SCH.",
               "Hospital Radiology set occupant activity schedule to Hospital ACTIVITY_SCH.",
               "Hospital Radiology set lighting schedule to Hospital BLDG_LIGHT_RADIOLOGY_SCH.",
               "Hospital Radiology set electric equipment schedule to Hospital BLDG_EQUIP_SCH.",
               "Hospital Radiology set infiltration schedule to Hospital INFIL_SCH_PNNL.",
               "Hospital PhysTherapy had no people, one has been created.",
               "Hospital PhysTherapy set occupancy to 5.0 people/1000 ft^2.",
               "Hospital PhysTherapy had no lights, one has been created.",
               "Hospital PhysTherapy set LPD to 0.9 W/ft^2.",
               "Hospital PhysTherapy had no electric equipment, one has been created.",
               "Hospital PhysTherapy set electric EPD to 1.5 W/ft^2.",
               "Hospital PhysTherapy had no ventilation specification, one has been created.",
               "Hospital PhysTherapy set ventilation per area to 0.47 cfm/ft^2.",
               "Hospital PhysTherapy set occupancy schedule to Hospital BLDG_OCC_SCH.",
               "Hospital PhysTherapy set occupant activity schedule to Hospital ACTIVITY_SCH.",
               "Hospital PhysTherapy set lighting schedule to Hospital BLDG_LIGHT_SCH.",
               "Hospital PhysTherapy set electric equipment schedule to Hospital BLDG_EQUIP_SCH.",
               "Hospital PhysTherapy set infiltration schedule to Hospital INFIL_SCH_PNNL.",
               "Hospital PatRoom had no people, one has been created.",
               "Hospital PatRoom set occupancy to 5.0 people/1000 ft^2.",
               "Hospital PatRoom had no lights, one has been created.",
               "Hospital PatRoom set LPD to 0.7 W/ft^2.",
               "Hospital PatRoom had no electric equipment, one has been created.",
               "Hospital PatRoom set electric EPD to 2.0 W/ft^2.",
               "Hospital PatRoom had no ventilation specification, one has been created.",
               "Hospital PatRoom set ventilation to 2.0 ACH.",
               "Hospital PatRoom set occupancy schedule to Hospital BLDG_OCC_EXTD_SCH.",
               "Hospital PatRoom set occupant activity schedule to Hospital ACTIVITY_SCH.",
               "Hospital PatRoom set lighting schedule to Hospital BLDG_LIGHT_SCH.",
               "Hospital PatRoom set electric equipment schedule to Hospital BLDG_EQUIP_EXTD_SCH.",
               "Hospital PatRoom set infiltration schedule to Hospital INFIL_SCH_PNNL.",
               "Hospital PatCorridor had no people, one has been created.",
               "Hospital PatCorridor set occupancy to 1.0 people/1000 ft^2.",
               "Hospital PatCorridor had no lights, one has been created.",
               "Hospital PatCorridor set LPD to 1.0 W/ft^2.",
               "Hospital PatCorridor had no ventilation specification, one has been created.",
               "Hospital PatCorridor set ventilation per area to 0.05 cfm/ft^2.",
               "Hospital PatCorridor set occupancy schedule to Hospital BLDG_OCC_EXTD_SCH.",
               "Hospital PatCorridor set occupant activity schedule to Hospital ACTIVITY_SCH.",
               "Hospital PatCorridor set lighting schedule to Hospital BLDG_LIGHT_CORRIDOR_SCH.",
               "Hospital PatCorridor set electric equipment schedule to Hospital BLDG_EQUIP_SCH.",
               "Hospital PatCorridor set infiltration schedule to Hospital INFIL_SCH_PNNL.",
               "Hospital Office had no people, one has been created.",
               "Hospital Office set occupancy to 7.0 people/1000 ft^2.",
               "Hospital Office had no lights, one has been created.",
               "Hospital Office set LPD to 1.0 W/ft^2.",
               "Hospital Office had no electric equipment, one has been created.",
               "Hospital Office set electric EPD to 1.0 W/ft^2.",
               "Hospital Office had no ventilation specification, one has been created.",
               "Hospital Office set ventilation per person to 20.0 cfm/person.",
               "Hospital Office set occupancy schedule to Hospital BLDG_OCC_SCH.",
               "Hospital Office set occupant activity schedule to Hospital ACTIVITY_SCH.",
               "Hospital Office set lighting schedule to Hospital BLDG_LIGHT_OFFICE_SCH.",
               "Hospital Office set electric equipment schedule to Hospital BLDG_EQUIP_SCH.",
               "Hospital Office set infiltration schedule to Hospital INFIL_SCH_PNNL.",
               "Hospital Lobby had no people, one has been created.",
               "Hospital Lobby set occupancy to 1.333 people/1000 ft^2.",
               "Hospital Lobby had no lights, one has been created.",
               "Hospital Lobby set LPD to 1.3 W/ft^2.",
               "Hospital Lobby had no electric equipment, one has been created.",
               "Hospital Lobby set electric EPD to 0.09999999999999999 W/ft^2.",
               "Hospital Lobby had no ventilation specification, one has been created.",
               "Hospital Lobby set ventilation per person to 15.0 cfm/person.",
               "Hospital Lobby set occupancy schedule to Hospital BLDG_OCC_SCH.",
               "Hospital Lobby set occupant activity schedule to Hospital ACTIVITY_SCH.",
               "Hospital Lobby set lighting schedule to Hospital BLDG_LIGHT_LOBBYFLR1_SCH.",
               "Hospital Lobby set electric equipment schedule to Hospital BLDG_EQUIP_SCH.",
               "Hospital Lobby set infiltration schedule to Hospital INFIL_SCH_PNNL.",
               "Hospital ICU_PatRm had no people, one has been created.",
               "Hospital ICU_PatRm set occupancy to 5.0 people/1000 ft^2.",
               "Hospital ICU_PatRm had no lights, one has been created.",
               "Hospital ICU_PatRm set LPD to 0.7 W/ft^2.",
               "Hospital ICU_PatRm had no electric equipment, one has been created.",
               "Hospital ICU_PatRm set electric EPD to 3.0 W/ft^2.",
               "Hospital ICU_PatRm had no ventilation specification, one has been created.",
               "Hospital ICU_PatRm set ventilation to 2.0 ACH.",
               "Hospital ICU_PatRm set occupancy schedule to Hospital BLDG_OCC_EXTD_SCH.",
               "Hospital ICU_PatRm set occupant activity schedule to Hospital ACTIVITY_SCH.",
               "Hospital ICU_PatRm set lighting schedule to Hospital BLDG_LIGHT_EXTD_SCH.",
               "Hospital ICU_PatRm set electric equipment schedule to Hospital BLDG_EQUIP_EXTD_SCH.",
               "Hospital ICU_PatRm set infiltration schedule to Hospital INFIL_SCH_PNNL.",
               "Hospital OR had no people, one has been created.",
               "Hospital OR set occupancy to 5.0 people/1000 ft^2.",
               "Hospital OR had no lights, one has been created.",
               "Hospital OR set LPD to 2.2 W/ft^2.",
               "Hospital OR had no electric equipment, one has been created.",
               "Hospital OR set electric EPD to 4.0 W/ft^2.",
               "Hospital OR had no ventilation specification, one has been created.",
               "Hospital OR set ventilation to 3.0 ACH.",
               "Hospital OR set occupancy schedule to Hospital BLDG_OCC_EXTD_SCH.",
               "Hospital OR set occupant activity schedule to Hospital ACTIVITY_SCH.",
               "Hospital OR set lighting schedule to Hospital BLDG_LIGHT_EXTD_SCH.",
               "Hospital OR set electric equipment schedule to Hospital BLDG_EQUIP_EXTD_SCH.",
               "Hospital OR set infiltration schedule to Hospital INFIL_SCH_PNNL.",
               "Hospital ICE_Open had no ventilation specification, one has been created.",
               "Hospital ICU_NurseStn had no people, one has been created.",
               "Hospital ICU_NurseStn set occupancy to 1.333 people/1000 ft^2.",
               "Hospital ICU_NurseStn had no lights, one has been created.",
               "Hospital ICU_NurseStn set LPD to 1.0 W/ft^2.",
               "Hospital ICU_NurseStn had no electric equipment, one has been created.",
               "Hospital ICU_NurseStn set electric EPD to 2.0 W/ft^2.",
               "Hospital ICU_NurseStn had no ventilation specification, one has been created.",
               "Hospital ICU_NurseStn set ventilation per person to 15.0 cfm/person.",
               "Hospital ICU_NurseStn set occupancy schedule to Hospital BLDG_OCC_EXTD_SCH.",
               "Hospital ICU_NurseStn set occupant activity schedule to Hospital ACTIVITY_SCH.",
               "Hospital ICU_NurseStn set lighting schedule to Hospital BLDG_LIGHT_EXTD_SCH.",
               "Hospital ICU_NurseStn set electric equipment schedule to Hospital BLDG_EQUIP_EXTD_SCH.",
               "Hospital ICU_NurseStn set infiltration schedule to Hospital INFIL_SCH_PNNL.",
               "Hospital NurseStn had no people, one has been created.",
               "Hospital NurseStn set occupancy to 1.333 people/1000 ft^2.",
               "Hospital NurseStn had no lights, one has been created.",
               "Hospital NurseStn set LPD to 1.0 W/ft^2.",
               "Hospital NurseStn had no electric equipment, one has been created.",
               "Hospital NurseStn set electric EPD to 2.0 W/ft^2.",
               "Hospital NurseStn had no ventilation specification, one has been created.",
               "Hospital NurseStn set ventilation per person to 15.0 cfm/person.",
               "Hospital NurseStn set occupancy schedule to Hospital BLDG_OCC_SCH.",
               "Hospital NurseStn set occupant activity schedule to Hospital ACTIVITY_SCH.",
               "Hospital NurseStn set lighting schedule to Hospital BLDG_LIGHT_NURSEFLR234_SCH.",
               "Hospital NurseStn set electric equipment schedule to Hospital BLDG_EQUIP_SCH.",
               "Hospital NurseStn set infiltration schedule to Hospital INFIL_SCH_PNNL.",
               "Hospital ER_Triage had no people, one has been created.",
               "Hospital ER_Triage set occupancy to 20.0 people/1000 ft^2.",
               "Hospital ER_Triage had no lights, one has been created.",
               "Hospital ER_Triage set LPD to 2.7 W/ft^2.",
               "Hospital ER_Triage had no electric equipment, one has been created.",
               "Hospital ER_Triage set electric EPD to 2.0 W/ft^2.",
               "Hospital ER_Triage had no ventilation specification, one has been created.",
               "Hospital ER_Triage set ventilation to 2.0 ACH.",
               "Hospital ER_Triage set occupancy schedule to Hospital BLDG_OCC_EXTD_SCH.",
               "Hospital ER_Triage set occupant activity schedule to Hospital ACTIVITY_SCH.",
               "Hospital ER_Triage set lighting schedule to Hospital BLDG_LIGHT_EXTD_SCH.",
               "Hospital ER_Triage set electric equipment schedule to Hospital BLDG_EQUIP_EXTD_SCH.",
               "Hospital ER_Triage set infiltration schedule to Hospital INFIL_SCH_PNNL.",
               "Hospital Corridor had no people, one has been created.",
               "Hospital Corridor set occupancy to 1.0 people/1000 ft^2.",
               "Hospital Corridor had no lights, one has been created.",
               "Hospital Corridor set LPD to 1.0 W/ft^2.",
               "Hospital Corridor had no ventilation specification, one has been created.",
               "Hospital Corridor set ventilation per area to 0.05 cfm/ft^2.",
               "Hospital Corridor set occupancy schedule to Hospital BLDG_OCC_SCH.",
               "Hospital Corridor set occupant activity schedule to Hospital ACTIVITY_SCH.",
               "Hospital Corridor set lighting schedule to Hospital BLDG_LIGHT_CORRIDOR_SCH.",
               "Hospital Corridor set electric equipment schedule to Hospital BLDG_EQUIP_SCH.",
               "Hospital Corridor set infiltration schedule to Hospital INFIL_SCH_PNNL.",
               "Hospital ER_Trauma had no people, one has been created.",
               "Hospital ER_Trauma set occupancy to 20.0 people/1000 ft^2.",
               "Hospital ER_Trauma had no lights, one has been created.",
               "Hospital ER_Trauma set LPD to 2.7 W/ft^2.",
               "Hospital ER_Trauma had no electric equipment, one has been created.",
               "Hospital ER_Trauma set electric EPD to 4.0 W/ft^2.",
               "Hospital ER_Trauma had no ventilation specification, one has been created.",
               "Hospital ER_Trauma set ventilation to 2.0 ACH.",
               "Hospital ER_Trauma set occupancy schedule to Hospital BLDG_OCC_EXTD_SCH.",
               "Hospital ER_Trauma set occupant activity schedule to Hospital ACTIVITY_SCH.",
               "Hospital ER_Trauma set lighting schedule to Hospital BLDG_LIGHT_EXTD_SCH.",
               "Hospital ER_Trauma set electric equipment schedule to Hospital BLDG_EQUIP_EXTD_SCH.",
               "Hospital ER_Trauma set infiltration schedule to Hospital INFIL_SCH_PNNL.",
               "Hospital ER_Exam had no people, one has been created.",
               "Hospital ER_Exam set occupancy to 20.0 people/1000 ft^2.",
               "Hospital ER_Exam had no lights, one has been created.",
               "Hospital ER_Exam set LPD to 2.7 W/ft^2.",
               "Hospital ER_Exam had no electric equipment, one has been created.",
               "Hospital ER_Exam set electric EPD to 1.5 W/ft^2.",
               "Hospital ER_Exam had no ventilation specification, one has been created.",
               "Hospital ER_Exam set ventilation to 2.0 ACH.",
               "Hospital ER_Exam set occupancy schedule to Hospital BLDG_OCC_EXTD_SCH.",
               "Hospital ER_Exam set occupant activity schedule to Hospital ACTIVITY_SCH.",
               "Hospital ER_Exam set lighting schedule to Hospital BLDG_LIGHT_EXTD_SCH.",
               "Hospital ER_Exam set electric equipment schedule to Hospital BLDG_EQUIP_EXTD_SCH.",
               "Hospital ER_Exam set infiltration schedule to Hospital INFIL_SCH_PNNL.",
               "Hospital Kitchen had no people, one has been created.",
               "Hospital Kitchen set occupancy to 5.0 people/1000 ft^2.",
               "Hospital Kitchen had no lights, one has been created.",
               "Hospital Kitchen set LPD to 1.2 W/ft^2.",
               "Hospital Kitchen had no electric equipment, one has been created.",
               "Hospital Kitchen set electric EPD to 7.5 W/ft^2.",
               "Hospital Kitchen had no gas equipment, one has been created.",
               "Hospital Kitchen set gas EPD to 51.16 Btu/hr*ft^2.",
               "Hospital Kitchen had no ventilation specification, one has been created.",
               "Hospital Kitchen set ventilation per area to 0.47 cfm/ft^2.",
               "Hospital Kitchen set occupancy schedule to Hospital BLDG_OCC_SCH.",
               "Hospital Kitchen set occupant activity schedule to Hospital ACTIVITY_SCH.",
               "Hospital Kitchen set lighting schedule to Hospital BLDG_LIGHT_SCH.",
               "Hospital Kitchen set electric equipment schedule to Hospital BLDG_EQUIP_EXTD_SCH.",
               "Hospital Kitchen set gas equipment schedule to Hospital BLDG_EQUIP_SCH.",
               "Hospital Kitchen set infiltration schedule to Hospital INFIL_SCH_PNNL.",
               "Hospital ER_NurseStn had no people, one has been created.",
               "Hospital ER_NurseStn set occupancy to 1.333 people/1000 ft^2.",
               "Hospital ER_NurseStn had no lights, one has been created.",
               "Hospital ER_NurseStn set LPD to 1.0 W/ft^2.",
               "Hospital ER_NurseStn had no electric equipment, one has been created.",
               "Hospital ER_NurseStn set electric EPD to 1.36 W/ft^2.",
               "Hospital ER_NurseStn had no ventilation specification, one has been created.",
               "Hospital ER_NurseStn set ventilation per person to 15.0 cfm/person.",
               "Hospital ER_NurseStn set occupancy schedule to Hospital BLDG_OCC_EXTD_SCH.",
               "Hospital ER_NurseStn set occupant activity schedule to Hospital ACTIVITY_SCH.",
               "Hospital ER_NurseStn set lighting schedule to Hospital BLDG_LIGHT_NURSEFLR1_SCH.",
               "Hospital ER_NurseStn set electric equipment schedule to Hospital BLDG_EQUIP_EXTD_SCH.",
               "Hospital ER_NurseStn set infiltration schedule to Hospital INFIL_SCH_PNNL.",
               "Hospital Lab had no people, one has been created.",
               "Hospital Lab set occupancy to 5.0 people/1000 ft^2.",
               "Hospital Lab had no lights, one has been created.",
               "Hospital Lab set LPD to 1.4 W/ft^2.",
               "Hospital Lab had no electric equipment, one has been created.",
               "Hospital Lab set electric EPD to 4.0 W/ft^2.",
               "Hospital Lab had no ventilation specification, one has been created.",
               "Hospital Lab set ventilation per person to 20.0 cfm/person.",
               "Hospital Lab set occupancy schedule to Hospital BLDG_OCC_SCH.",
               "Hospital Lab set occupant activity schedule to Hospital ACTIVITY_SCH.",
               "Hospital Lab set lighting schedule to Hospital BLDG_LIGHT_SCH.",
               "Hospital Lab set electric equipment schedule to Hospital BLDG_EQUIP_SCH.",
               "Hospital Lab set infiltration schedule to Hospital INFIL_SCH_PNNL.",
               "Hospital Dining had no people, one has been created.",
               "Hospital Dining set occupancy to 10.0 people/1000 ft^2.",
               "Hospital Dining had no lights, one has been created.",
               "Hospital Dining set LPD to 0.9 W/ft^2.",
               "Hospital Dining had no electric equipment, one has been created.",
               "Hospital Dining set electric EPD to 1.0 W/ft^2.",
               "Hospital Dining had no ventilation specification, one has been created.",
               "Hospital Dining set ventilation per person to 20.0 cfm/person.",
               "Hospital Dining set occupancy schedule to Hospital BLDG_OCC_SCH.",
               "Hospital Dining set occupant activity schedule to Hospital ACTIVITY_SCH.",
               "Hospital Dining set lighting schedule to Hospital BLDG_LIGHT_SCH.",
               "Hospital Dining set electric equipment schedule to Hospital BLDG_EQUIP_SCH.",
               "Hospital Dining set infiltration schedule to Hospital INFIL_SCH_PNNL.",
               "Adding construction set: 90.1-2004-ASHRAE 169-2013-6A-Hospital--is_residentialNo",
               "Adding construction Typical Insulated Exterior Mass Floor R-11.49.",
               "Adding construction Typical Insulated Exterior Mass Wall R-9.62.",
               "Adding construction Typical IEAD Roof R-15.87.",
               "Adding construction Typical Interior Floor.",
               "Adding construction Typical Interior Wall.",
               "Adding construction Typical Interior Ceiling.",
               "Adding construction Typical Insulated Carpeted 6in Slab Floor.",
               "Adding construction Typical Insulated Basement Mass Wall.",
               "Adding construction U 0.57 SHGC 0.49 Dbl Blue 6mm/6mm Air.",
               "Adding construction Typical Insulated Metal Door R-1.43.",
               "Adding construction Typical Overhead Door R-2.0.",
               "Adding construction U 1.17 SHGC 0.49 Simple Glazing Skylight U-1.17 SHGC 0.0.",
               "Adding construction Typical Interior Window.",
               "Adding construction Typical Interior Door.",
               "Adding construction Typical Interior Partition.",
               "For Hospital Corridor A  - Story Top, set infiltration rate to 0.202 cfm/ft2 exterior wall area (aka 1.8 cfm/ft2 @75Pa).",
               "For Hospital Corridor A end_a - Story Top, set infiltration rate to 0.202 cfm/ft2 exterior wall area (aka 1.8 cfm/ft2 @75Pa).",
               "For Hospital Corridor B  - Story Top, no exterior wall area was found, no infiltration will be added.",
               "For Hospital Corridor B end_a - Story Top, set infiltration rate to 0.202 cfm/ft2 exterior wall area (aka 1.8 cfm/ft2 @75Pa).",
               "For Hospital Corridor C  - Story Top, set infiltration rate to 0.202 cfm/ft2 exterior wall area (aka 1.8 cfm/ft2 @75Pa).",
               "For Hospital Corridor C end_a - Story Top, set infiltration rate to 0.202 cfm/ft2 exterior wall area (aka 1.8 cfm/ft2 @75Pa).",
               "For Hospital Dining A  - Story Ground, set infiltration rate to 0.202 cfm/ft2 exterior wall area (aka 1.8 cfm/ft2 @75Pa).",
               "For Hospital Dining A end_b - Story Ground, set infiltration rate to 0.202 cfm/ft2 exterior wall area (aka 1.8 cfm/ft2 @75Pa).",
               "For Hospital Dining B  - Story Ground, no exterior wall area was found, no infiltration will be added.",
               "For Hospital Dining B end_b - Story Ground, set infiltration rate to 0.202 cfm/ft2 exterior wall area (aka 1.8 cfm/ft2 @75Pa).",
               "For Hospital Dining C  - Story Ground, set infiltration rate to 0.202 cfm/ft2 exterior wall area (aka 1.8 cfm/ft2 @75Pa).",
               "For Hospital Dining C end_b - Story Ground, set infiltration rate to 0.202 cfm/ft2 exterior wall area (aka 1.8 cfm/ft2 @75Pa).",
               "For Hospital ER_Exam A  - Story Ground, set infiltration rate to 0.202 cfm/ft2 exterior wall area (aka 1.8 cfm/ft2 @75Pa).",
               "For Hospital ER_Exam B  - Story Ground, no exterior wall area was found, no infiltration will be added.",
               "For Hospital ER_Exam C  - Story Ground, set infiltration rate to 0.202 cfm/ft2 exterior wall area (aka 1.8 cfm/ft2 @75Pa).",
               "For Hospital ER_NurseStn A  - Story Mid, set infiltration rate to 0.202 cfm/ft2 exterior wall area (aka 1.8 cfm/ft2 @75Pa).",
               "For Hospital ER_NurseStn B  - Story Mid, no exterior wall area was found, no infiltration will be added.",
               "For Hospital ER_NurseStn C  - Story Mid, set infiltration rate to 0.202 cfm/ft2 exterior wall area (aka 1.8 cfm/ft2 @75Pa).",
               "For Hospital ER_Trauma A  - Story Ground, set infiltration rate to 0.202 cfm/ft2 exterior wall area (aka 1.8 cfm/ft2 @75Pa).",
               "For Hospital ER_Trauma B  - Story Ground, no exterior wall area was found, no infiltration will be added.",
               "For Hospital ER_Trauma C  - Story Ground, set infiltration rate to 0.202 cfm/ft2 exterior wall area (aka 1.8 cfm/ft2 @75Pa).",
               "For Hospital ER_Triage A  - Story Ground, set infiltration rate to 0.202 cfm/ft2 exterior wall area (aka 1.8 cfm/ft2 @75Pa).",
               "For Hospital ER_Triage B  - Story Ground, no exterior wall area was found, no infiltration will be added.",
               "For Hospital ER_Triage C  - Story Ground, set infiltration rate to 0.202 cfm/ft2 exterior wall area (aka 1.8 cfm/ft2 @75Pa).",
               "For Hospital ICE_Open A  - Story Ground, set infiltration rate to 0.202 cfm/ft2 exterior wall area (aka 1.8 cfm/ft2 @75Pa).",
               "For Hospital ICE_Open B  - Story Ground, no exterior wall area was found, no infiltration will be added.",
               "For Hospital ICE_Open C  - Story Ground, set infiltration rate to 0.202 cfm/ft2 exterior wall area (aka 1.8 cfm/ft2 @75Pa).",
               "For Hospital ICU_NurseStn A  - Story Ground, set infiltration rate to 0.202 cfm/ft2 exterior wall area (aka 1.8 cfm/ft2 @75Pa).",
               "For Hospital ICU_NurseStn B  - Story Ground, no exterior wall area was found, no infiltration will be added.",
               "For Hospital ICU_NurseStn C  - Story Ground, set infiltration rate to 0.202 cfm/ft2 exterior wall area (aka 1.8 cfm/ft2 @75Pa).",
               "For Hospital ICU_PatRm A  - Story Ground, set infiltration rate to 0.202 cfm/ft2 exterior wall area (aka 1.8 cfm/ft2 @75Pa).",
               "For Hospital ICU_PatRm B  - Story Ground, no exterior wall area was found, no infiltration will be added.",
               "For Hospital ICU_PatRm C  - Story Ground, set infiltration rate to 0.202 cfm/ft2 exterior wall area (aka 1.8 cfm/ft2 @75Pa).",
               "For Hospital Kitchen A  - Story Ground, set infiltration rate to 0.202 cfm/ft2 exterior wall area (aka 1.8 cfm/ft2 @75Pa).",
               "For Hospital Kitchen A  - Story Mid, set infiltration rate to 0.202 cfm/ft2 exterior wall area (aka 1.8 cfm/ft2 @75Pa).",
               "For Hospital Kitchen A end_a - Story Ground, set infiltration rate to 0.202 cfm/ft2 exterior wall area (aka 1.8 cfm/ft2 @75Pa).",
               "For Hospital Kitchen B  - Story Ground, no exterior wall area was found, no infiltration will be added.",
               "For Hospital Kitchen B  - Story Mid, no exterior wall area was found, no infiltration will be added.",
               "For Hospital Kitchen B end_a - Story Ground, set infiltration rate to 0.202 cfm/ft2 exterior wall area (aka 1.8 cfm/ft2 @75Pa).",
               "For Hospital Kitchen C  - Story Ground, set infiltration rate to 0.202 cfm/ft2 exterior wall area (aka 1.8 cfm/ft2 @75Pa).",
               "For Hospital Kitchen C  - Story Mid, set infiltration rate to 0.202 cfm/ft2 exterior wall area (aka 1.8 cfm/ft2 @75Pa).",
               "For Hospital Kitchen C end_a - Story Ground, set infiltration rate to 0.202 cfm/ft2 exterior wall area (aka 1.8 cfm/ft2 @75Pa).",
               "For Hospital Lab A  - Story Ground, set infiltration rate to 0.202 cfm/ft2 exterior wall area (aka 1.8 cfm/ft2 @75Pa).",
               "For Hospital Lab B  - Story Ground, no exterior wall area was found, no infiltration will be added.",
               "For Hospital Lab C  - Story Ground, set infiltration rate to 0.202 cfm/ft2 exterior wall area (aka 1.8 cfm/ft2 @75Pa).",
               "For Hospital Lobby A  - Story Mid, set infiltration rate to 0.202 cfm/ft2 exterior wall area (aka 1.8 cfm/ft2 @75Pa).",
               "For Hospital Lobby B  - Story Mid, no exterior wall area was found, no infiltration will be added.",
               "For Hospital Lobby C  - Story Mid, set infiltration rate to 0.202 cfm/ft2 exterior wall area (aka 1.8 cfm/ft2 @75Pa).",
               "For Hospital NurseStn A  - Story Mid, set infiltration rate to 0.202 cfm/ft2 exterior wall area (aka 1.8 cfm/ft2 @75Pa).",
               "For Hospital NurseStn A  - Story Top, set infiltration rate to 0.202 cfm/ft2 exterior wall area (aka 1.8 cfm/ft2 @75Pa).",
               "For Hospital NurseStn A end_b - Story Mid, set infiltration rate to 0.202 cfm/ft2 exterior wall area (aka 1.8 cfm/ft2 @75Pa).",
               "For Hospital NurseStn A end_b - Story Top, set infiltration rate to 0.202 cfm/ft2 exterior wall area (aka 1.8 cfm/ft2 @75Pa).",
               "For Hospital NurseStn B  - Story Mid, no exterior wall area was found, no infiltration will be added.",
               "For Hospital NurseStn B  - Story Top, no exterior wall area was found, no infiltration will be added.",
               "For Hospital NurseStn B end_b - Story Mid, set infiltration rate to 0.202 cfm/ft2 exterior wall area (aka 1.8 cfm/ft2 @75Pa).",
               "For Hospital NurseStn B end_b - Story Top, set infiltration rate to 0.202 cfm/ft2 exterior wall area (aka 1.8 cfm/ft2 @75Pa).",
               "For Hospital NurseStn C  - Story Mid, set infiltration rate to 0.202 cfm/ft2 exterior wall area (aka 1.8 cfm/ft2 @75Pa).",
               "For Hospital NurseStn C  - Story Top, set infiltration rate to 0.202 cfm/ft2 exterior wall area (aka 1.8 cfm/ft2 @75Pa).",
               "For Hospital NurseStn C end_b - Story Mid, set infiltration rate to 0.202 cfm/ft2 exterior wall area (aka 1.8 cfm/ft2 @75Pa).",
               "For Hospital NurseStn C end_b - Story Top, set infiltration rate to 0.202 cfm/ft2 exterior wall area (aka 1.8 cfm/ft2 @75Pa).",
               "For Hospital Office A  - Story Ground, set infiltration rate to 0.202 cfm/ft2 exterior wall area (aka 1.8 cfm/ft2 @75Pa).",
               "For Hospital Office B  - Story Ground, no exterior wall area was found, no infiltration will be added.",
               "For Hospital Office C  - Story Ground, set infiltration rate to 0.202 cfm/ft2 exterior wall area (aka 1.8 cfm/ft2 @75Pa).",
               "For Hospital OR A  - Story Ground, set infiltration rate to 0.202 cfm/ft2 exterior wall area (aka 1.8 cfm/ft2 @75Pa).",
               "For Hospital OR B  - Story Ground, no exterior wall area was found, no infiltration will be added.",
               "For Hospital OR C  - Story Ground, set infiltration rate to 0.202 cfm/ft2 exterior wall area (aka 1.8 cfm/ft2 @75Pa).",
               "For Hospital PatRoom A  - Story Mid, set infiltration rate to 0.202 cfm/ft2 exterior wall area (aka 1.8 cfm/ft2 @75Pa).",
               "For Hospital PatRoom A end_a - Story Mid, set infiltration rate to 0.202 cfm/ft2 exterior wall area (aka 1.8 cfm/ft2 @75Pa).",
               "For Hospital PatRoom B  - Story Mid, no exterior wall area was found, no infiltration will be added.",
               "For Hospital PatRoom B end_a - Story Mid, set infiltration rate to 0.202 cfm/ft2 exterior wall area (aka 1.8 cfm/ft2 @75Pa).",
               "For Hospital PatRoom C  - Story Mid, set infiltration rate to 0.202 cfm/ft2 exterior wall area (aka 1.8 cfm/ft2 @75Pa).",
               "For Hospital PatRoom C end_a - Story Mid, set infiltration rate to 0.202 cfm/ft2 exterior wall area (aka 1.8 cfm/ft2 @75Pa).",
               "For Hospital PhysTherapy A  - Story Ground, set infiltration rate to 0.202 cfm/ft2 exterior wall area (aka 1.8 cfm/ft2 @75Pa).",
               "For Hospital PhysTherapy B  - Story Ground, no exterior wall area was found, no infiltration will be added.",
               "For Hospital PhysTherapy C  - Story Ground, set infiltration rate to 0.202 cfm/ft2 exterior wall area (aka 1.8 cfm/ft2 @75Pa).",
               "For Hospital Radiology A  - Story Ground, set infiltration rate to 0.202 cfm/ft2 exterior wall area (aka 1.8 cfm/ft2 @75Pa).",
               "For Hospital Radiology B  - Story Ground, no exterior wall area was found, no infiltration will be added.",
               "For Hospital Radiology C  - Story Ground, set infiltration rate to 0.202 cfm/ft2 exterior wall area (aka 1.8 cfm/ft2 @75Pa).",
               "The building has fewer than 6 effective stories; assuming Hydraulic elevators.",
               "For Hospital Corridor - 90.1-2004, floor area = 59956 ft^2.",
               "For Hospital Corridor - 90.1-2004, number of spaces = 6.",
               "For Hospital Corridor - 90.1-2004, number of people = 60.",
               "For Hospital Dining - 90.1-2004, floor area = 10710 ft^2.",
               "For Hospital Dining - 90.1-2004, number of spaces = 6.",
               "For Hospital Dining - 90.1-2004, number of people = 107.",
               "For Hospital ER_Exam - 90.1-2004, floor area = 3409 ft^2.",
               "For Hospital ER_Exam - 90.1-2004, number of spaces = 3.",
               "For Hospital ER_Exam - 90.1-2004, number of people = 68.",
               "For Hospital ER_NurseStn - 90.1-2004, floor area = 18975 ft^2.",
               "For Hospital ER_NurseStn - 90.1-2004, number of spaces = 3.",
               "For Hospital ER_NurseStn - 90.1-2004, number of people = 25.",
               "For Hospital ER_Trauma - 90.1-2004, floor area = 861 ft^2.",
               "For Hospital ER_Trauma - 90.1-2004, number of spaces = 3.",
               "For Hospital ER_Trauma - 90.1-2004, number of people = 17.",
               "For Hospital ER_Triage - 90.1-2004, floor area = 1722 ft^2.",
               "For Hospital ER_Triage - 90.1-2004, number of spaces = 3.",
               "For Hospital ER_Triage - 90.1-2004, number of people = 34.",
               "For Hospital ICE_Open - 90.1-2004, floor area = 9470 ft^2.",
               "For Hospital ICE_Open - 90.1-2004, number of spaces = 3.",
               "For Hospital ICU_NurseStn - 90.1-2004, floor area = 10262 ft^2.",
               "For Hospital ICU_NurseStn - 90.1-2004, number of spaces = 3.",
               "For Hospital ICU_NurseStn - 90.1-2004, number of people = 14.",
               "For Hospital ICU_PatRm - 90.1-2004, floor area = 3960 ft^2.",
               "For Hospital ICU_PatRm - 90.1-2004, number of spaces = 3.",
               "For Hospital ICU_PatRm - 90.1-2004, number of people = 20.",
               "For Hospital ICU_PatRm - 90.1-2004, number of beds = 19.801791071642587.",
               "For Hospital Kitchen - 90.1-2004, floor area = 14257 ft^2.",
               "For Hospital Kitchen - 90.1-2004, number of spaces = 9.",
               "For Hospital Kitchen - 90.1-2004, number of people = 71.",
               "For Hospital Lab - 90.1-2004, floor area = 8127 ft^2.",
               "For Hospital Lab - 90.1-2004, number of spaces = 3.",
               "For Hospital Lab - 90.1-2004, number of people = 41.",
               "For Hospital Lobby - 90.1-2004, floor area = 22626 ft^2.",
               "For Hospital Lobby - 90.1-2004, number of spaces = 3.",
               "For Hospital Lobby - 90.1-2004, number of people = 30.",
               "For Hospital NurseStn - 90.1-2004, floor area = 59336 ft^2.",
               "For Hospital NurseStn - 90.1-2004, number of spaces = 12.",
               "For Hospital NurseStn - 90.1-2004, number of people = 79.",
[...]
               "For Prototype: Zone Hospital Kitchen C end_a - Story Ground Exhaust Fan: Pressure Rise = 0.5in w.c.",
               "For Building Story 3 ThermalZone PTAC Fan: allowed_hp = 34.85HP; motor eff = 29.0%; total fan eff = 16% based on 83262 cfm.",
               "For 1 Zone VAV 1 Fan: allowed_hp = 217.56HP; motor eff = 95.0%; total fan eff = 62% based on 146436 cfm.",
               "For 1 Zone VAV Fan: allowed_hp = 39.06HP; motor eff = 93.0%; total fan eff = 60% based on 26289 cfm.",
               "For Zone Hospital Kitchen A  - Story Ground Exhaust Fan: allowed_hp = 0.05HP; motor eff = 29.0%; total fan eff = 16% based on 349 cfm.",
               "For Zone Hospital Kitchen A  - Story Mid Exhaust Fan: allowed_hp = 0.01HP; motor eff = 29.0%; total fan eff = 16% based on 52 cfm.",
               "For Zone Hospital Kitchen A end_a - Story Ground Exhaust Fan: allowed_hp = 0.02HP; motor eff = 29.0%; total fan eff = 16% based on 158 cfm.",
               "For Zone Hospital Kitchen B  - Story Ground Exhaust Fan: allowed_hp = 0.87HP; motor eff = 29.0%; total fan eff = 16% based on 5542 cfm.",
               "For Zone Hospital Kitchen B  - Story Mid Exhaust Fan: allowed_hp = 0.13HP; motor eff = 29.0%; total fan eff = 16% based on 821 cfm.",
               "For Zone Hospital Kitchen B end_a - Story Ground Exhaust Fan: allowed_hp = 0.39HP; motor eff = 29.0%; total fan eff = 16% based on 2501 cfm.",
               "For Zone Hospital Kitchen C  - Story Ground Exhaust Fan: allowed_hp = 0.05HP; motor eff = 29.0%; total fan eff = 16% based on 349 cfm.",
               "For Zone Hospital Kitchen C  - Story Mid Exhaust Fan: allowed_hp = 0.01HP; motor eff = 29.0%; total fan eff = 16% based on 52 cfm.",
               "For Zone Hospital Kitchen C end_a - Story Ground Exhaust Fan: allowed_hp = 0.02HP; motor eff = 29.0%; total fan eff = 16% based on 158 cfm.",
               "Finished applying prototype HVAC assumptions.",
               "Started applying HVAC efficiency standards.",
               "For 1 Zone VAV, ERV not required based on 14% OA flow, design supply air flow of 26289cfm, and climate zone .",
               "For 1 Zone VAV Fan: Set fan curve coefficients to reflect control type of 'Single Zone VAV Fan'.",
               "For 1 Zone VAV: Single zone controls not applicable because no DX cooling.",
               "For Building Story 1 ThermalZone: DCV is not required since the occupant density is 1 people/1000 ft2, but the minimum occupant density is 100 people/1000 ft2.",
               "For 1 Zone VAV: Annual occupied hours = 4122 hr/yr, assuming a 0.15 occupancy threshold.  This schedule will be used as the HVAC operation schedule.",
               "For 1 Zone VAV: Motorized OA damper is required because the building has 3 stories, >= the minimum of 3 stories for climate zone , and the system OA intake of 3710 cfm is >= the minimum threshold of 0 cfm.",
               "For 1 Zone VAV: Setting motorized OA damper schedule to 1 Zone VAV Occ Sch.",
               "For Building Story 1 ThermalZone: DCV is not required since the occupant density is 1 people/1000 ft2, but the minimum occupant density is 100 people/1000 ft2.",
               "For 1 Zone VAV: Optimum start is required since design flow rate of 26289 cfm exceeds the limit of 10000 cfm.",
               "For 1 Zone VAV: Optimum start control enabled.",
               "For 1 Zone VAV 1, ERV not required based on 17% OA flow, design supply air flow of 146436cfm, and climate zone .",
               "For 1 Zone VAV 1 Fan: Set fan curve coefficients to reflect control type of 'Single Zone VAV Fan'.",
               "For 1 Zone VAV 1: Single zone controls not applicable because no DX cooling.",
               "For Building Story 2 ThermalZone: DCV is not required since the occupant density is 6 people/1000 ft2, but the minimum occupant density is 100 people/1000 ft2.",
               "For 1 Zone VAV 1: Annual occupied hours = 4955 hr/yr, assuming a 0.15 occupancy threshold.  This schedule will be used as the HVAC operation schedule.",
               "For 1 Zone VAV 1: Motorized OA damper is required because the building has 3 stories, >= the minimum of 3 stories for climate zone , and the system OA intake of 25523 cfm is >= the minimum threshold of 0 cfm.",
               "For 1 Zone VAV 1: Setting motorized OA damper schedule to 1 Zone VAV 1 Occ Sch.",
               "For Building Story 2 ThermalZone: DCV is not required since the occupant density is 6 people/1000 ft2, but the minimum occupant density is 100 people/1000 ft2.",
               "For 1 Zone VAV 1: Optimum start is required since design flow rate of 146436 cfm exceeds the limit of 10000 cfm.",
               "For 1 Zone VAV 1: Optimum start control enabled.",
               "For 1 Zone VAV 1 Fan: motor nameplate = 200HP, motor eff = 95.0%.",
               "For 1 Zone VAV Fan: motor nameplate = 40HP, motor eff = 93.0%.",
               "For Building Story 3 ThermalZone PTAC Fan: motor eff = 29.0%; assumed to represent several < 1 HP motors.",
               "For Zone Hospital Kitchen A  - Story Ground Exhaust Fan: motor eff = 29.0%; assumed to represent several < 1 HP motors.",
               "For Zone Hospital Kitchen A  - Story Mid Exhaust Fan: motor eff = 29.0%; assumed to represent several < 1 HP motors.",
               "For Zone Hospital Kitchen A end_a - Story Ground Exhaust Fan: motor eff = 29.0%; assumed to represent several < 1 HP motors.",
               "For Zone Hospital Kitchen B  - Story Ground Exhaust Fan: motor eff = 29.0%; assumed to represent several < 1 HP motors.",
               "For Zone Hospital Kitchen B  - Story Mid Exhaust Fan: motor eff = 29.0%; assumed to represent several < 1 HP motors.",
               "For Zone Hospital Kitchen B end_a - Story Ground Exhaust Fan: motor eff = 29.0%; assumed to represent several < 1 HP motors.",
               "For Zone Hospital Kitchen C  - Story Ground Exhaust Fan: motor eff = 29.0%; assumed to represent several < 1 HP motors.",
               "For Zone Hospital Kitchen C  - Story Mid Exhaust Fan: motor eff = 29.0%; assumed to represent several < 1 HP motors.",
               "For Zone Hospital Kitchen C end_a - Story Ground Exhaust Fan: motor eff = 29.0%; assumed to represent several < 1 HP motors.",
               "For Chilled Water Loop Primary Pump: brake hp = 5.14HP, motor nameplate = 8.0HP, motor eff = 89.5%.",
               "For Condenser Water Loop Constant Pump: brake hp = 20.43HP, motor nameplate = 25.0HP, motor eff = 92.4%.",
               "For Hospital Shared Service Water Loop Circulator Pump: brake hp = 0.01HP, motor nameplate = 1.0HP, motor eff = 82.5%.",
               "For Booster Water Loop Pump: brake hp = 0.0HP, motor nameplate = 0.0HP, motor eff = 100.0%.",
               "For Chilled Water Loop Secondary Pump: brake hp = 15.43HP, motor nameplate = 20.0HP, motor eff = 91.0%.",
               "For Hospital Kitchen - 90.1-2004 Service Water Loop Water Mains Pressure Driven: brake hp = 0.0HP, motor nameplate = 1.0HP, motor eff = 82.5%.",
               "For Hot Water Loop Pump: brake hp = 17.28HP, motor nameplate = 20.0HP, motor eff = 91.0%.",
               "For Building Story 3 ThermalZone PTAC 1spd DX AC Clg Coil: AirCooled All Other PTAC Capacity = 2416kBtu/hr; EER = 9.3",
               "For 90.1-2004: 90.1-2004 WaterCooled  Rotary Screw Chiller 0 447tons 0.6kW/ton: WaterCooled  Rotary Screw Capacity = 447tons; COP = 5.5 (0.6kW/ton)",
               "For 90.1-2004: Boiler: Gas Hot Water Capacity = 8742kBtu/hr; Thermal Efficiency = 0.75",
               "For 90.1-2004: 141gal Electricity Water Heater - 141kBtu/hr 1.0 Therm Eff; thermal efficiency = 1.0, skin-loss UA = 6Btu/hr",
               "For 90.1-2004: 184gal NaturalGas Water Heater - 184kBtu/hr 0.805 Therm Eff; thermal efficiency = 0.805, skin-loss UA = 18Btu/hr",
               "For 90.1-2004: 6.0gal Electricity Booster Water Heater - 35kBtu/hr 1.0 Therm Eff; thermal efficiency = 1.0, skin-loss UA = 4Btu/hr",
               "For Propeller or Axial TwoSpeed Fan Open Cooling Tower, design water flow = 1268 gpm, minimum performance = 38.2 gpm/hp (nameplate).",
               "For Propeller or Axial TwoSpeed Fan Open Cooling Tower, allowed fan motor nameplate hp = 33.2 hp, fan brake horsepower = 29.9, and fan motor actual power = 32.3 hp (24112 W) at 0.924 motor efficiency.",
               "Finished applying HVAC efficiency standards."
            ],
            "step_initial_condition" : "The building started with 1508 objects.",
            "step_result" : "Success",
            "step_values" : [
               {
                  "name" : "template",
                  "value" : "90.1-2004"
               },
               {
                  "name" : "system_type",
                  "value" : "Inferred"
               },
               {
                  "name" : "hvac_delivery_type",
                  "value" : "Forced Air"
               },
               {
                  "name" : "htg_src",
                  "value" : "NaturalGas"
               },
               {
                  "name" : "clg_src",
                  "value" : "Electricity"
               },
               {
                  "name" : "kitchen_makeup",
                  "value" : "Adjacent"
               },
               {
                  "name" : "exterior_lighting_zone",
                  "value" : "3 - All Other Areas"
               },
               {
                  "name" : "add_constructions",
                  "value" : false
               },
               {
                  "name" : "add_space_type_loads",
                  "value" : false
               },
               {
                  "name" : "add_elevators",
                  "value" : false
               },
               {
                  "name" : "add_exterior_lights",
                  "value" : false
               },
               {
                  "name" : "onsite_parking_fraction",
                  "value" : 1
               },
               {
                  "name" : "add_exhaust",
                  "value" : false
               },
               {
                  "name" : "add_swh",
                  "value" : false
               },
               {
                  "name" : "add_thermostat",
                  "value" : true
               },
               {
                  "name" : "add_hvac",
                  "value" : true
               },
               {
                  "name" : "remove_objects",
                  "value" : false
               },
               {
                  "name" : "use_upstream_args",
                  "value" : false
               },
               {
                  "name" : "enable_dst",
                  "value" : true
               }
            ],
            "step_warnings" : [
               "[openstudio.model.Model] The run completed but had the following severe errors: InitFans: Fan=",
               "[openstudio.standards.Fan] For 1 Zone VAV 1 Fan, there is no greater nominal HP.  Use the efficiency of the largest motor category.",
               "[openstudio.standards.AirLoopHVAC] Cannot find economizer limits for 90.1-2004, , assuming no economizer required.",
               "[openstudio.standards.AirLoopHVAC] Cannot find economizer limits for 90.1-2004, , assuming no economizer required."
            ]
         }
      },
      {
         "arguments" : {
            "__SKIP__" : true,
            "r_value" : 10
         },
         "measure_dir_name" : "IncreaseInsulationRValueForExteriorWalls",
         "result" : {
            "completed_at" : "20191231T195822Z",
            "measure_class_name" : "IncreaseInsulationRValueForExteriorWalls",
            "measure_display_name" : "Increase R-value of Insulation for Exterior Walls to a Specific Value",
            "measure_name" : "increase_insulation_r_value_for_exterior_walls",
            "measure_taxonomy" : "Envelope.Opaque",
            "measure_type" : "ModelMeasure",
            "measure_uid" : "3fdf9c39-d305-449b-a4b5-077166af5a67",
            "measure_version_id" : "185d23d1-67c9-435c-97d2-f28e7f80632b",
            "measure_version_modified" : "20191029T231254Z",
            "measure_xml_checksum" : "0F858D9E",
            "started_at" : "20191231T195822Z",
            "stderr" : "",
            "stdout" : "",
            "step_errors" : [],
            "step_files" : [],
            "step_info" : [],
            "step_result" : "Skip",
            "step_values" : [],
            "step_warnings" : []
         }
      },
      {
         "arguments" : {
            "__SKIP__" : true,
            "elecequip_power_reduction_percent" : 20
         },
         "measure_dir_name" : "ReduceElectricEquipmentLoadsByPercentage",
         "result" : {
            "completed_at" : "20191231T195822Z",
            "measure_class_name" : "ReduceElectricEquipmentLoadsByPercentage",
            "measure_display_name" : "Reduce Electric Equipment Loads by Percentage",
            "measure_name" : "reduce_electric_equipment_loads_by_percentage",
            "measure_taxonomy" : "Equipment.Electric Equipment",
            "measure_type" : "ModelMeasure",
            "measure_uid" : "0902e302-70db-4339-99b0-17f08bc93629",
            "measure_version_id" : "7be9778a-f317-46fb-b48a-4159ce1ec158",
            "measure_version_modified" : "20191029T231304Z",
            "measure_xml_checksum" : "F9A5B8F0",
            "started_at" : "20191231T195822Z",
            "stderr" : "",
            "stdout" : "",
            "step_errors" : [],
            "step_files" : [],
            "step_info" : [],
            "step_result" : "Skip",
            "step_values" : [],
            "step_warnings" : []
         }
      },
      {
         "arguments" : {
            "__SKIP__" : true,
            "lighting_power_reduction_percent" : 30
         },
         "measure_dir_name" : "ReduceLightingLoadsByPercentage",
         "result" : {
            "completed_at" : "20191231T195822Z",
            "measure_class_name" : "ReduceLightingLoadsByPercentage",
            "measure_display_name" : "Reduce Lighting Loads by Percentage",
            "measure_name" : "reduce_lighting_loads_by_percentage",
            "measure_taxonomy" : "Electric Lighting.Lighting Equipment",
            "measure_type" : "ModelMeasure",
            "measure_uid" : "791f3404-a28b-4a80-ba3f-e15b339e39ea",
            "measure_version_id" : "1da578d2-2b29-4536-9382-08364c5d5219",
            "measure_version_modified" : "20191029T231304Z",
            "measure_xml_checksum" : "293730A7",
            "started_at" : "20191231T195822Z",
            "stderr" : "",
            "stdout" : "",
            "step_errors" : [],
            "step_files" : [],
            "step_info" : [],
            "step_result" : "Skip",
            "step_values" : [],
            "step_warnings" : []
         }
      },
      {
         "arguments" : {
            "feature_id" : "9",
            "feature_name" : "Hospital 2",
            "feature_type" : "Building"
         },
         "measure_dir_name" : "default_feature_reports",
         "result" : {
            "completed_at" : "20191231T200152Z",
            "measure_class_name" : "DefaultFeatureReports",
            "measure_display_name" : "DefaultFeatureReports",
            "measure_name" : "default_feature_reports",
            "measure_taxonomy" : "Reporting.QAQC",
            "measure_type" : "ReportingMeasure",
            "measure_uid" : "9ee3135a-8070-4408-bfa1-b75fecf9dd4f",
            "measure_version_id" : "803f9d76-a088-489d-88d3-6f3a5ae50d8a",
            "measure_version_modified" : "20191030T020950Z",
            "measure_xml_checksum" : "FB304155",
            "started_at" : "20191231T200124Z",
            "stderr" : "",
            "stdout" : "",
            "step_errors" : [],
            "step_files" : [
               "/Users/tkwasnik/github/urbanopt-example-geojson-reopt-project/run/baseline_scenario/9/010_default_feature_reports/default_feature_reports.json",
               "/Users/tkwasnik/github/urbanopt-example-geojson-reopt-project/run/baseline_scenario/9/010_default_feature_reports/default_feature_reports.csv"
            ],
            "step_final_condition" : "Default Feature Reports generated successfully.",
            "step_info" : [
               "TIMESERIES: Electricity:Facility",
               "KEY VALUES: [\"\"]",
               "!! TIMESERIES NAME: Electricity:Facility AND key_value: ",
               "First timeseries",
               "TIMESERIES: ElectricityProduced:Facility",
               "KEY VALUES: []",
               "!! TIMESERIES NAME: ElectricityProduced:Facility AND key_value: ",
               "Is NOT Initialized",
               "TIMESERIES: Gas:Facility",
               "KEY VALUES: [\"\"]",
               "!! TIMESERIES NAME: Gas:Facility AND key_value: ",
               "Is Initialized",
               "TIMESERIES: DistrictCooling:Facility",
               "KEY VALUES: []",
               "!! TIMESERIES NAME: DistrictCooling:Facility AND key_value: ",
               "Is NOT Initialized",
               "TIMESERIES: DistrictHeating:Facility",
               "KEY VALUES: []",
               "!! TIMESERIES NAME: DistrictHeating:Facility AND key_value: ",
               "Is NOT Initialized",
               "TIMESERIES: District Cooling Chilled Water Rate",
               "KEY VALUES: []",
               "!! TIMESERIES NAME: District Cooling Chilled Water Rate AND key_value: ",
               "Is NOT Initialized",
               "TIMESERIES: District Cooling Mass Flow Rate",
               "KEY VALUES: []",
               "!! TIMESERIES NAME: District Cooling Mass Flow Rate AND key_value: ",
               "Is NOT Initialized",
               "TIMESERIES: District Cooling Inlet Temperature",
               "KEY VALUES: []",
               "!! TIMESERIES NAME: District Cooling Inlet Temperature AND key_value: ",
               "Is NOT Initialized",
               "TIMESERIES: District Cooling Outlet Temperature",
               "KEY VALUES: []",
               "!! TIMESERIES NAME: District Cooling Outlet Temperature AND key_value: ",
               "Is NOT Initialized",
               "TIMESERIES: District Heating Hot Water Rate",
               "KEY VALUES: []",
               "!! TIMESERIES NAME: District Heating Hot Water Rate AND key_value: ",
               "Is NOT Initialized",
               "TIMESERIES: District Heating Mass Flow Rate",
               "KEY VALUES: []",
               "!! TIMESERIES NAME: District Heating Mass Flow Rate AND key_value: ",
               "Is NOT Initialized",
               "TIMESERIES: District Heating Inlet Temperature",
               "KEY VALUES: []",
               "!! TIMESERIES NAME: District Heating Inlet Temperature AND key_value: ",
               "Is NOT Initialized",
               "TIMESERIES: District Heating Outlet Temperature",
               "KEY VALUES: []",
               "!! TIMESERIES NAME: District Heating Outlet Temperature AND key_value: ",
               "Is NOT Initialized",
               "new final_timeseries_names size: 13"
            ],
            "step_result" : "Success",
            "step_values" : [
               {
                  "name" : "feature_id",
                  "value" : "9"
               },
               {
                  "name" : "feature_name",
                  "value" : "Hospital 2"
               },
               {
                  "name" : "feature_type",
                  "value" : "Building"
               },
               {
                  "name" : "reporting_frequency",
                  "value" : "Hourly"
               }
            ],
            "step_warnings" : []
         }
      }
   ],
   "updated_at" : "20191231T200157Z",
   "weather_file" : null
}
