Program Version,EnergyPlus, Version 9.1.0-08d2e308bb, YMD=2019.12.31 13:10
! <Version>, Version ID
 Version, 9.1
! <Timesteps per Hour>, #TimeSteps, Minutes per TimeStep {minutes}
 Timesteps per Hour,  1, 60
! <System Convergence Limits>, Minimum System TimeStep {minutes}, Max HVAC Iterations, Minimum Plant Iterations, Maximum Plant Iterations
 System Convergence Limits, 1, 20, 2, 8
! <Simulation Control>, Do Zone Sizing, Do System Sizing, Do Plant Sizing, Do Design Days, Do Weather Simulation, Do HVAC Sizing Simulation
 Simulation Control, Yes, Yes, Yes, No, Yes, No
! <Output Reporting Tolerances>, Tolerance for Time Heating Setpoint Not Met, Tolerance for Zone Cooling Setpoint Not Met Time
 Output Reporting Tolerances, 0.200, 0.200, 
! <Site:GroundTemperature:BuildingSurface>,Jan{C},Feb{C},Mar{C},Apr{C},May{C},Jun{C},Jul{C},Aug{C},Sep{C},Oct{C},Nov{C},Dec{C}
 Site:GroundTemperature:BuildingSurface,  19.74,  19.69,  19.85,  20.06,  20.27,  20.46,  20.61,  20.65,  20.60,  20.38,  20.19,  19.90
! <Site:GroundTemperature:FCfactorMethod>,Jan{C},Feb{C},Mar{C},Apr{C},May{C},Jun{C},Jul{C},Aug{C},Sep{C},Oct{C},Nov{C},Dec{C}
 Site:GroundTemperature:FCfactorMethod,  -2.87,  -0.64,   3.71,   7.83,  15.62,  19.72,  20.85,  18.77,  13.96,   7.98,   2.08,  -1.81
! <Site:GroundTemperature:Shallow>,Jan{C},Feb{C},Mar{C},Apr{C},May{C},Jun{C},Jul{C},Aug{C},Sep{C},Oct{C},Nov{C},Dec{C}
 Site:GroundTemperature:Shallow,  13.00,  13.00,  13.00,  13.00,  13.00,  13.00,  13.00,  13.00,  13.00,  13.00,  13.00,  13.00
! <Site:GroundTemperature:Deep>,Jan{C},Feb{C},Mar{C},Apr{C},May{C},Jun{C},Jul{C},Aug{C},Sep{C},Oct{C},Nov{C},Dec{C}
 Site:GroundTemperature:Deep,  16.00,  16.00,  16.00,  16.00,  16.00,  16.00,  16.00,  16.00,  16.00,  16.00,  16.00,  16.00
! <Site:GroundReflectance>,Jan{dimensionless},Feb{dimensionless},Mar{dimensionless},Apr{dimensionless},May{dimensionless},Jun{dimensionless},Jul{dimensionless},Aug{dimensionless},Sep{dimensionless},Oct{dimensionless},Nov{dimensionless},Dec{dimensionless}
 Site:GroundReflectance,  0.20,  0.20,  0.20,  0.20,  0.20,  0.20,  0.20,  0.20,  0.20,  0.20,  0.20,  0.20
! <Site:GroundReflectance:SnowModifier>, Normal, Daylighting {dimensionless}
 Site:GroundReflectance:SnowModifier,   1.000,   1.000
! <Site:GroundReflectance:Snow>,Jan{dimensionless},Feb{dimensionless},Mar{dimensionless},Apr{dimensionless},May{dimensionless},Jun{dimensionless},Jul{dimensionless},Aug{dimensionless},Sep{dimensionless},Oct{dimensionless},Nov{dimensionless},Dec{dimensionless}
 Site:GroundReflectance:Snow,  0.20,  0.20,  0.20,  0.20,  0.20,  0.20,  0.20,  0.20,  0.20,  0.20,  0.20,  0.20
! <Site:GroundReflectance:Snow:Daylighting>,Jan{dimensionless},Feb{dimensionless},Mar{dimensionless},Apr{dimensionless},May{dimensionless},Jun{dimensionless},Jul{dimensionless},Aug{dimensionless},Sep{dimensionless},Oct{dimensionless},Nov{dimensionless},Dec{dimensionless}
 Site:GroundReflectance:Snow:Daylighting,  0.20,  0.20,  0.20,  0.20,  0.20,  0.20,  0.20,  0.20,  0.20,  0.20,  0.20,  0.20
! <Environment:Weather Station>,Wind Sensor Height Above Ground {m},Wind Speed Profile Exponent {},Wind Speed Profile Boundary Layer Thickness {m},Air Temperature Sensor Height Above Ground {m},Wind Speed Modifier Coefficient-Internal,Temperature Modifier Coefficient-Internal
Environment:Weather Station,10.000,0.140,270.000,1.500,1.586,9.750E-003
! <Site:Location>, Location Name, Latitude {N+/S- Deg}, Longitude {E+/W- Deg},  Time Zone Number {GMT+/-}, Elevation {m},  Standard Pressure at Elevation {Pa}, Standard RhoAir at Elevation
Site:Location,Buffalo Niagara Intl Ap NY USA TMY3 WMO#=725280,42.93,-78.73,-5.00,215.00,98769,1.1739
! <Site Water Mains Temperature Information>,Calculation Method{},Water Mains Temperature Schedule Name{},Annual Average Outdoor Air Temperature{C},Maximum Difference In Monthly Average Outdoor Air Temperatures{deltaC},Fixed Default Water Mains Temperature{C}
Site Water Mains Temperature Information,Correlation,NA,8.97,26.20,NA
! <Building Information>, Building Name,North Axis {deg},Terrain,  Loads Convergence Tolerance Value,Temperature Convergence Tolerance Value,  Solar Distribution,Maximum Number of Warmup Days,Minimum Number of Warmup Days
 Building Information,Hotel 1,0.000,City,4.00000E-002,0.40000,FullExterior,25,6
! <Inside Convection Algorithm>, Algorithm {Simple | TARP | CeilingDiffuser | AdaptiveConvectionAlgorithm}
Inside Convection Algorithm,TARP
! <Outside Convection Algorithm>, Algorithm {SimpleCombined | TARP | MoWitt | DOE-2 | AdaptiveConvectionAlgorithm}
Outside Convection Algorithm,DOE-2
! <Sky Radiance Distribution>, Value {Anisotropic}
Sky Radiance Distribution,Anisotropic
! <Zone Air Solution Algorithm>, Value {ThirdOrderBackwardDifference | AnalyticalSolution | EulerMethod}
 Zone Air Solution Algorithm, ThirdOrderBackwardDifference
! <Zone Air Carbon Dioxide Balance Simulation>, Simulation {Yes/No}, Carbon Dioxide Concentration
 Zone Air Carbon Dioxide Balance Simulation, No,N/A
! <Zone Air Generic Contaminant Balance Simulation>, Simulation {Yes/No}, Generic Contaminant Concentration
 Zone Air Generic Contaminant Balance Simulation, No,N/A
! <Zone Air Mass Flow Balance Simulation>, Enforce Mass Balance, Adjust Zone Mixing, Adjust Zone Infiltration {AddInfiltration | AdjustInfiltration | None}, Infiltration Zones {MixingSourceZonesOnly | AllZones}
 Zone Air Mass Flow Balance Simulation, No,N/A,N/A,N/A
! <HVACSystemRootFindingAlgorithm>, Value {RegulaFalsi | Bisection | BisectionThenRegulaFalsi | RegulaFalsiThenBisection}
 HVACSystemRootFindingAlgorithm, RegulaFalsi
! <Environment:Site Atmospheric Variation>,Wind Speed Profile Exponent {},Wind Speed Profile Boundary Layer Thickness {m},Air Temperature Gradient Coefficient {K/m}
Environment:Site Atmospheric Variation,0.330,460.000,6.500000E-003
! <Surface Geometry>,Starting Corner,Vertex Input Direction,Coordinate System,Daylight Reference Point Coordinate System,Rectangular (Simple) Surface Coordinate System
 Surface Geometry,UpperLeftCorner,Counterclockwise,RelativeCoordinateSystem,RelativeCoordinateSystem,RelativeToZoneOrigin
! <Surface Heat Transfer Algorithm>, Value {CTF - ConductionTransferFunction | EMPD - MoisturePenetrationDepthConductionTransferFunction | CondFD - ConductionFiniteDifference | HAMT - CombinedHeatAndMoistureFiniteElement} - Description,Inside Surface Max Temperature Limit{C}, Surface Convection Coefficient Lower Limit {W/m2-K}, Surface Convection Coefficient Upper Limit {W/m2-K}
Surface Heat Transfer Algorithm, CTF - ConductionTransferFunction,200,0.10,1000.0
! <Shading Summary>, Number of Fixed Detached Shades, Number of Building Detached Shades, Number of Attached Shades
 Shading Summary,0,12,0
! <Zone Summary>, Number of Zones, Number of Zone Surfaces, Number of SubSurfaces
 Zone Summary,10,100,40
! <Zone Information>,Zone Name,North Axis {deg},Origin X-Coordinate {m},Origin Y-Coordinate {m},Origin Z-Coordinate {m},Centroid X-Coordinate {m},Centroid Y-Coordinate {m},Centroid Z-Coordinate {m},Type,Zone Multiplier,Zone List Multiplier,Minimum X {m},Maximum X {m},Minimum Y {m},Maximum Y {m},Minimum Z {m},Maximum Z {m},Ceiling Height {m},Volume {m3},Zone Inside Convection Algorithm {Simple-Detailed-CeilingDiffuser-TrombeWall},Zone Outside Convection Algorithm {Simple-Detailed-Tarp-MoWitt-DOE-2-BLAST}, Floor Area {m2},Exterior Gross Wall Area {m2},Exterior Net Wall Area {m2},Exterior Window Area {m2}, Number of Surfaces, Number of SubSurfaces, Number of Shading SubSurfaces,  Part of Total Building Area
 Zone Information, BUILDING STORY 1 THERMALZONE,0.0,0.00,0.00,0.00,33.23,35.60,1.50,1,1,1,8.57E-011,66.46,2.52E-005,71.19,0.00,3.00,3.00,8807.05,TARP,DOE-2,2935.68,651.86,456.30,195.56,6,4,0,Yes
 Zone Information, BUILDING STORY 10 THERMALZONE,0.0,0.00,0.00,0.00,33.23,35.60,28.50,1,1,1,8.57E-011,66.46,2.52E-005,71.19,27.00,30.00,3.00,8807.05,TARP,DOE-2,2935.68,651.86,456.30,195.56,6,4,0,Yes
 Zone Information, BUILDING STORY 2 THERMALZONE,0.0,0.00,0.00,0.00,33.23,35.60,4.50,1,1,1,8.57E-011,66.46,2.52E-005,71.19,3.00,6.00,3.00,8807.05,TARP,DOE-2,2935.68,651.86,456.30,195.56,6,4,0,Yes
 Zone Information, BUILDING STORY 3 THERMALZONE,0.0,0.00,0.00,0.00,33.23,35.60,7.50,1,1,1,8.57E-011,66.46,2.52E-005,71.19,6.00,9.00,3.00,8807.05,TARP,DOE-2,2935.68,651.86,456.30,195.56,6,4,0,Yes
 Zone Information, BUILDING STORY 4 THERMALZONE,0.0,0.00,0.00,0.00,33.23,35.60,10.50,1,1,1,8.57E-011,66.46,2.52E-005,71.19,9.00,12.00,3.00,8807.05,TARP,DOE-2,2935.68,651.86,456.30,195.56,6,4,0,Yes
 Zone Information, BUILDING STORY 5 THERMALZONE,0.0,0.00,0.00,0.00,33.23,35.60,13.50,1,1,1,8.57E-011,66.46,2.52E-005,71.19,12.00,15.00,3.00,8807.05,TARP,DOE-2,2935.68,651.86,456.30,195.56,6,4,0,Yes
 Zone Information, BUILDING STORY 6 THERMALZONE,0.0,0.00,0.00,0.00,33.23,35.60,16.50,1,1,1,8.57E-011,66.46,2.52E-005,71.19,15.00,18.00,3.00,8807.05,TARP,DOE-2,2935.68,651.86,456.30,195.56,6,4,0,Yes
 Zone Information, BUILDING STORY 7 THERMALZONE,0.0,0.00,0.00,0.00,33.23,35.60,19.50,1,1,1,8.57E-011,66.46,2.52E-005,71.19,18.00,21.00,3.00,8807.05,TARP,DOE-2,2935.68,651.86,456.30,195.56,6,4,0,Yes
 Zone Information, BUILDING STORY 8 THERMALZONE,0.0,0.00,0.00,0.00,33.23,35.60,22.50,1,1,1,8.57E-011,66.46,2.52E-005,71.19,21.00,24.00,3.00,8807.05,TARP,DOE-2,2935.68,651.86,456.30,195.56,6,4,0,Yes
 Zone Information, BUILDING STORY 9 THERMALZONE,0.0,0.00,0.00,0.00,33.23,35.60,25.50,1,1,1,8.57E-011,66.46,2.52E-005,71.19,24.00,27.00,3.00,8807.05,TARP,DOE-2,2935.68,651.86,456.30,195.56,6,4,0,Yes
! <Zone Internal Gains Nominal>,Zone Name, Floor Area {m2},# Occupants,Area per Occupant {m2/person},Occupant per Area {person/m2},Interior Lighting {W/m2},Electric Load {W/m2},Gas Load {W/m2},Other Load {W/m2},Hot Water Eq {W/m2},Steam Equipment {W/m2},Sum Loads per Area {W/m2},Outdoor Controlled Baseboard Heat
 Zone Internal Gains Nominal, BUILDING STORY 1 THERMALZONE,2935.68,112.8,26.023,3.843E-002,11.840,6.749,0.000,0.000,0.000,0.000,18.589,No
 Zone Internal Gains Nominal, BUILDING STORY 10 THERMALZONE,2935.68,112.8,26.023,3.843E-002,11.840,6.749,0.000,0.000,0.000,0.000,18.589,No
 Zone Internal Gains Nominal, BUILDING STORY 2 THERMALZONE,2935.68,112.8,26.023,3.843E-002,11.840,6.749,0.000,0.000,0.000,0.000,18.589,No
 Zone Internal Gains Nominal, BUILDING STORY 3 THERMALZONE,2935.68,31.6,92.903,1.076E-002,5.382,0.000,0.000,0.000,0.000,0.000,5.382,No
 Zone Internal Gains Nominal, BUILDING STORY 4 THERMALZONE,2935.68,31.6,92.903,1.076E-002,5.382,0.000,0.000,0.000,0.000,0.000,5.382,No
 Zone Internal Gains Nominal, BUILDING STORY 5 THERMALZONE,2935.68,112.8,26.023,3.843E-002,11.840,6.749,0.000,0.000,0.000,0.000,18.589,No
 Zone Internal Gains Nominal, BUILDING STORY 6 THERMALZONE,2935.68,110.0,26.698,3.746E-002,11.613,6.512,0.000,0.000,0.000,0.000,18.125,No
 Zone Internal Gains Nominal, BUILDING STORY 7 THERMALZONE,2935.68,1574.5,1.865,0.536,12.994,40.090,0.000,0.000,0.000,0.000,53.084,No
 Zone Internal Gains Nominal, BUILDING STORY 8 THERMALZONE,2935.68,886.0,3.313,0.302,11.404,7.527,0.000,0.000,0.000,0.000,18.931,No
 Zone Internal Gains Nominal, BUILDING STORY 9 THERMALZONE,2935.68,899.3,3.265,0.306,13.409,167.720,311.512,0.000,0.000,0.000,492.641,No
! <People Internal Gains Nominal>,Name,Schedule Name,Zone Name,Zone Floor Area {m2},# Zone Occupants,Number of People {},People/Floor Area {person/m2},Floor Area per person {m2/person},Fraction Radiant,Fraction Convected,Sensible Fraction Calculation,Activity level,ASHRAE 55 Warnings,Carbon Dioxide Generation Rate,Nominal Minimum Number of People,Nominal Maximum Number of People
 People Internal Gains Nominal, BUILDING STORY 9 THERMALZONE LARGEHOTEL BANQUET PEOPLE 1,HOTELLARGE MEETINGROOM_OCC_SCH,BUILDING STORY 9 THERMALZONE,2935.68,899.3,365.7,0.125,8.028,0.300,0.700,AutoCalculate,HOTELLARGE ACTIVITY_SCH,No,3.8200E-008,0,366
 People Internal Gains Nominal, BUILDING STORY 9 THERMALZONE LARGEHOTEL CAFE PEOPLE 1,HOTELLARGE BLDG_OCC_SCH,BUILDING STORY 9 THERMALZONE,2935.68,899.3,425.7,0.145,6.896,0.300,0.700,AutoCalculate,HOTELLARGE ACTIVITY_SCH,No,3.8200E-008,0,426
 People Internal Gains Nominal, BUILDING STORY 9 THERMALZONE LARGEHOTEL KITCHEN PEOPLE 1,HOTELLARGE BLDG_OCC_SCH,BUILDING STORY 9 THERMALZONE,2935.68,899.3,17.4,5.932E-003,168.573,0.300,0.700,AutoCalculate,HOTELLARGE ACTIVITY_SCH,No,3.8200E-008,0,17
 People Internal Gains Nominal, BUILDING STORY 9 THERMALZONE LARGEHOTEL LAUNDRY PEOPLE 1,HOTELLARGE LAUNDRYROOM_OCC_SCH,BUILDING STORY 9 THERMALZONE,2935.68,899.3,10.6,3.598E-003,277.901,0.300,0.700,AutoCalculate,HOTELLARGE ACTIVITY_SCH,No,3.8200E-008,0,11
 People Internal Gains Nominal, BUILDING STORY 9 THERMALZONE LARGEHOTEL RETAIL PEOPLE 1,HOTELLARGE BLDG_OCC_SCH,BUILDING STORY 9 THERMALZONE,2935.68,899.3,73.5,2.503E-002,39.948,0.300,0.700,AutoCalculate,HOTELLARGE ACTIVITY_SCH,No,3.8200E-008,0,73
 People Internal Gains Nominal, BUILDING STORY 9 THERMALZONE LARGEHOTEL STORAGE PEOPLE 1,HOTELLARGE BLDG_OCC_SCH,BUILDING STORY 9 THERMALZONE,2935.68,899.3,6.4,2.190E-003,456.552,0.300,0.700,AutoCalculate,HOTELLARGE ACTIVITY_SCH,No,3.8200E-008,0,6
 People Internal Gains Nominal, BUILDING STORY 7 THERMALZONE LARGEHOTEL BANQUET PEOPLE 2,HOTELLARGE MEETINGROOM_OCC_SCH,BUILDING STORY 7 THERMALZONE,2935.68,1574.5,1134.5,0.386,2.588,0.300,0.700,AutoCalculate,HOTELLARGE ACTIVITY_SCH,No,3.8200E-008,0,1134
 People Internal Gains Nominal, BUILDING STORY 7 THERMALZONE LARGEHOTEL LOBBY PEOPLE 1,HOTELLARGE BLDG_OCC_SCH,BUILDING STORY 7 THERMALZONE,2935.68,1574.5,440.0,0.150,6.672,0.300,0.700,AutoCalculate,HOTELLARGE ACTIVITY_SCH,No,3.8200E-008,0,440
 People Internal Gains Nominal, BUILDING STORY 8 THERMALZONE LARGEHOTEL CORRIDOR PEOPLE 1,HOTELLARGE BLDG_OCC_SCH,BUILDING STORY 8 THERMALZONE,2935.68,886.0,2.1,7.275E-004,1374.565,0.300,0.700,AutoCalculate,HOTELLARGE ACTIVITY_SCH,No,3.8200E-008,0,2
 People Internal Gains Nominal, BUILDING STORY 8 THERMALZONE LARGEHOTEL LOBBY PEOPLE 2,HOTELLARGE BLDG_OCC_SCH,BUILDING STORY 8 THERMALZONE,2935.68,886.0,883.9,0.301,3.321,0.300,0.700,AutoCalculate,HOTELLARGE ACTIVITY_SCH,No,3.8200E-008,0,884
 People Internal Gains Nominal, BUILDING STORY 4 THERMALZONE LARGEHOTEL CORRIDOR PEOPLE 2,HOTELLARGE BLDG_OCC_SCH,BUILDING STORY 4 THERMALZONE,2935.68,31.6,31.6,1.076E-002,92.903,0.300,0.700,AutoCalculate,HOTELLARGE ACTIVITY_SCH,No,3.8200E-008,0,32
 People Internal Gains Nominal, BUILDING STORY 3 THERMALZONE LARGEHOTEL CORRIDOR PEOPLE 3,HOTELLARGE BLDG_OCC_SCH,BUILDING STORY 3 THERMALZONE,2935.68,31.6,31.6,1.076E-002,92.903,0.300,0.700,AutoCalculate,HOTELLARGE ACTIVITY_SCH,No,3.8200E-008,0,32
 People Internal Gains Nominal, BUILDING STORY 6 THERMALZONE LARGEHOTEL CORRIDOR PEOPLE 4,HOTELLARGE BLDG_OCC_SCH,BUILDING STORY 6 THERMALZONE,2935.68,110.0,1.1,3.781E-004,2644.853,0.300,0.700,AutoCalculate,HOTELLARGE ACTIVITY_SCH,No,3.8200E-008,0,1
 People Internal Gains Nominal, BUILDING STORY 6 THERMALZONE LARGEHOTEL GUESTROOM PEOPLE 1,HOTELLARGE GUESTROOM_OCC_SCH,BUILDING STORY 6 THERMALZONE,2935.68,110.0,108.8,3.708E-002,26.971,0.300,0.700,AutoCalculate,HOTELLARGE ACTIVITY_SCH,No,3.8200E-008,0,109
 People Internal Gains Nominal, BUILDING STORY 2 THERMALZONE LARGEHOTEL GUESTROOM PEOPLE 2,HOTELLARGE GUESTROOM_OCC_SCH,BUILDING STORY 2 THERMALZONE,2935.68,112.8,112.8,3.843E-002,26.023,0.300,0.700,AutoCalculate,HOTELLARGE ACTIVITY_SCH,No,3.8200E-008,0,113
 People Internal Gains Nominal, BUILDING STORY 5 THERMALZONE LARGEHOTEL GUESTROOM PEOPLE 3,HOTELLARGE GUESTROOM_OCC_SCH,BUILDING STORY 5 THERMALZONE,2935.68,112.8,112.8,3.843E-002,26.023,0.300,0.700,AutoCalculate,HOTELLARGE ACTIVITY_SCH,No,3.8200E-008,0,113
 People Internal Gains Nominal, BUILDING STORY 10 THERMALZONE LARGEHOTEL GUESTROOM PEOPLE 4,HOTELLARGE GUESTROOM_OCC_SCH,BUILDING STORY 10 THERMALZONE,2935.68,112.8,112.8,3.843E-002,26.023,0.300,0.700,AutoCalculate,HOTELLARGE ACTIVITY_SCH,No,3.8200E-008,0,113
 People Internal Gains Nominal, BUILDING STORY 1 THERMALZONE LARGEHOTEL GUESTROOM PEOPLE 5,HOTELLARGE GUESTROOM_OCC_SCH,BUILDING STORY 1 THERMALZONE,2935.68,112.8,112.8,3.843E-002,26.023,0.300,0.700,AutoCalculate,HOTELLARGE ACTIVITY_SCH,No,3.8200E-008,0,113
! <Lights Internal Gains Nominal>,Name,Schedule Name,Zone Name,Zone Floor Area {m2},# Zone Occupants,Lighting Level {W},Lights/Floor Area {W/m2},Lights per person {W/person},Fraction Return Air,Fraction Radiant,Fraction Short Wave,Fraction Convected,Fraction Replaceable,End-Use Category,Nominal Minimum Lighting Level {W},Nominal Maximum Lighting Level {W}
 Lights Internal Gains Nominal, BUILDING STORY 9 THERMALZONE LARGEHOTEL BANQUET LIGHTS 1,HOTELLARGE BLDG_LIGHT_SCH,BUILDING STORY 9 THERMALZONE,2935.68,899.3,7095.325,2.417,7.890,0.000,0.700,0.200,0.100,1.000,General,0.000,7095.325
 Lights Internal Gains Nominal, BUILDING STORY 9 THERMALZONE LARGEHOTEL CAFE LIGHTS 1,HOTELLARGE BLDG_LIGHT_SCH,BUILDING STORY 9 THERMALZONE,2935.68,899.3,8259.635,2.814,9.185,0.000,0.700,0.200,0.100,1.000,General,0.000,8259.635
 Lights Internal Gains Nominal, BUILDING STORY 9 THERMALZONE LARGEHOTEL KITCHEN LIGHTS 1,HOTELLARGE BLDG_LIGHT_SCH,BUILDING STORY 9 THERMALZONE,2935.68,899.3,4179.574,1.424,4.648,0.000,0.700,0.200,0.100,1.000,General,0.000,4179.574
 Lights Internal Gains Nominal, BUILDING STORY 9 THERMALZONE LARGEHOTEL LAUNDRY LIGHTS 1,HOTELLARGE BLDG_LIGHT_SCH,BUILDING STORY 9 THERMALZONE,2935.68,899.3,1584.564,0.540,1.762,0.000,0.700,0.200,0.100,1.000,General,0.000,1584.564
 Lights Internal Gains Nominal, BUILDING STORY 9 THERMALZONE LARGEHOTEL MECHANICAL LIGHTS 1,HOTELLARGE BLDG_LIGHT_SCH,BUILDING STORY 9 THERMALZONE,2935.68,899.3,8324.702,2.836,9.257,0.000,0.700,0.200,0.100,1.000,General,0.000,8324.702
 Lights Internal Gains Nominal, BUILDING STORY 9 THERMALZONE LARGEHOTEL RETAIL LIGHTS 1,HOTELLARGE BLDG_LIGHT_SCH,BUILDING STORY 9 THERMALZONE,2935.68,899.3,7348.702,2.503,8.172,0.000,0.700,0.200,0.100,1.000,General,0.000,7348.702
 Lights Internal Gains Nominal, BUILDING STORY 9 THERMALZONE LARGEHOTEL STORAGE LIGHTS 1,HOTELLARGE BLDG_LIGHT_STORAGE_SCH,BUILDING STORY 9 THERMALZONE,2935.68,899.3,2572.046,0.876,2.860,0.000,0.700,0.200,0.100,1.000,General,0.000,2572.046
 Lights Internal Gains Nominal, BUILDING STORY 7 THERMALZONE LARGEHOTEL BANQUET LIGHTS 2,HOTELLARGE BLDG_LIGHT_SCH,BUILDING STORY 7 THERMALZONE,2935.68,1574.5,22012.426,7.498,13.981,0.000,0.700,0.200,0.100,1.000,General,0.000,22012.426
 Lights Internal Gains Nominal, BUILDING STORY 7 THERMALZONE LARGEHOTEL LOBBY LIGHTS 1,HOTELLARGE BLDG_LIGHT_SCH,BUILDING STORY 7 THERMALZONE,2935.68,1574.5,16133.464,5.496,10.247,0.000,0.700,0.200,0.100,1.000,General,0.000,16133.464
 Lights Internal Gains Nominal, BUILDING STORY 8 THERMALZONE LARGEHOTEL CORRIDOR LIGHTS 1,HOTELLARGE BLDG_LIGHT_CORRIDOR_SCH,BUILDING STORY 8 THERMALZONE,2935.68,886.0,1067.858,0.364,1.205,0.000,0.700,0.200,0.100,1.000,General,0.000,1067.858
 Lights Internal Gains Nominal, BUILDING STORY 8 THERMALZONE LARGEHOTEL LOBBY LIGHTS 2,HOTELLARGE BLDG_LIGHT_SCH,BUILDING STORY 8 THERMALZONE,2935.68,886.0,32410.074,11.040,36.578,0.000,0.700,0.200,0.100,1.000,General,0.000,32410.074
 Lights Internal Gains Nominal, BUILDING STORY 4 THERMALZONE LARGEHOTEL CORRIDOR LIGHTS 2,HOTELLARGE BLDG_LIGHT_CORRIDOR_SCH,BUILDING STORY 4 THERMALZONE,2935.68,31.6,15799.710,5.382,500.000,0.000,0.700,0.200,0.100,1.000,General,0.000,15799.710
 Lights Internal Gains Nominal, BUILDING STORY 3 THERMALZONE LARGEHOTEL CORRIDOR LIGHTS 3,HOTELLARGE BLDG_LIGHT_CORRIDOR_SCH,BUILDING STORY 3 THERMALZONE,2935.68,31.6,15799.710,5.382,500.000,0.000,0.700,0.200,0.100,1.000,General,0.000,15799.710
 Lights Internal Gains Nominal, BUILDING STORY 6 THERMALZONE LARGEHOTEL CORRIDOR LIGHTS 4,HOTELLARGE BLDG_LIGHT_CORRIDOR_SCH,BUILDING STORY 6 THERMALZONE,2935.68,110.0,554.980,0.189,5.047,0.000,0.700,0.200,0.100,1.000,General,0.000,554.980
 Lights Internal Gains Nominal, BUILDING STORY 6 THERMALZONE LARGEHOTEL GUESTROOM LIGHTS 1,HOTELLARGE BLDG_LIGHT_GUESTROOM_SCH,BUILDING STORY 6 THERMALZONE,2935.68,110.0,33538.406,11.424,305.013,0.000,0.700,0.200,0.100,1.000,General,0.000,33538.406
 Lights Internal Gains Nominal, BUILDING STORY 2 THERMALZONE LARGEHOTEL GUESTROOM LIGHTS 2,HOTELLARGE BLDG_LIGHT_GUESTROOM_SCH,BUILDING STORY 2 THERMALZONE,2935.68,112.8,34759.362,11.840,308.123,0.000,0.700,0.200,0.100,1.000,General,0.000,34759.362
 Lights Internal Gains Nominal, BUILDING STORY 5 THERMALZONE LARGEHOTEL GUESTROOM LIGHTS 3,HOTELLARGE BLDG_LIGHT_GUESTROOM_SCH,BUILDING STORY 5 THERMALZONE,2935.68,112.8,34759.362,11.840,308.123,0.000,0.700,0.200,0.100,1.000,General,0.000,34759.362
 Lights Internal Gains Nominal, BUILDING STORY 10 THERMALZONE LARGEHOTEL GUESTROOM LIGHTS 4,HOTELLARGE BLDG_LIGHT_GUESTROOM_SCH,BUILDING STORY 10 THERMALZONE,2935.68,112.8,34759.362,11.840,308.123,0.000,0.700,0.200,0.100,1.000,General,0.000,34759.362
 Lights Internal Gains Nominal, BUILDING STORY 1 THERMALZONE LARGEHOTEL GUESTROOM LIGHTS 5,HOTELLARGE BLDG_LIGHT_GUESTROOM_SCH,BUILDING STORY 1 THERMALZONE,2935.68,112.8,34759.362,11.840,308.123,0.000,0.700,0.200,0.100,1.000,General,0.000,34759.362
! <ElectricEquipment Internal Gains Nominal>,Name,Schedule Name,Zone Name,Zone Floor Area {m2},# Zone Occupants,Equipment Level {W},Equipment/Floor Area {W/m2},Equipment per person {W/person},Fraction Latent,Fraction Radiant,Fraction Lost,Fraction Convected,End-Use SubCategory,Nominal Minimum Equipment Level {W},Nominal Maximum Equipment Level {W}
 ElectricEquipment Internal Gains Nominal, BUILDING STORY 9 THERMALZONE 13 ELEVATOR FANS,ELEVATOR SCHEDULE 3,BUILDING STORY 9 THERMALZONE,2935.68,899.3,970.918,0.331,1.080,0.000,0.500,0.000,0.500,Elevators,0.000,970.918
 ElectricEquipment Internal Gains Nominal, BUILDING STORY 9 THERMALZONE 13 ELEVATOR LIFT MOTORS,ELEVATOR SCHEDULE 1,BUILDING STORY 9 THERMALZONE,2935.68,899.3,264671.132,90.157,294.319,0.000,0.000,1.000,0.000,Elevators,0.000,264671.132
 ElectricEquipment Internal Gains Nominal, BUILDING STORY 9 THERMALZONE 13 ELEVATOR LIGHTS,ELEVATOR SCHEDULE 2,BUILDING STORY 9 THERMALZONE,2935.68,899.3,1155.855,0.394,1.285,0.000,0.500,0.000,0.500,Elevators,0.000,1155.855
 ElectricEquipment Internal Gains Nominal, BUILDING STORY 9 THERMALZONE LARGEHOTEL BANQUET ELEC EQUIP 1,HOTELLARGE KITCHEN_ELEC_EQUIP_SCH,BUILDING STORY 9 THERMALZONE,2935.68,899.3,34390.496,11.715,38.243,0.000,0.500,0.000,0.500,General,0.000,10317.149
 ElectricEquipment Internal Gains Nominal, BUILDING STORY 9 THERMALZONE LARGEHOTEL CAFE ELEC EQUIP 1,HOTELLARGE BLDG_EQUIP_SCH,BUILDING STORY 9 THERMALZONE,2935.68,899.3,3176.783,1.082,3.533,0.000,0.500,0.000,0.500,General,0.000,3176.783
 ElectricEquipment Internal Gains Nominal, BUILDING STORY 9 THERMALZONE LARGEHOTEL KITCHEN ELEC EQUIP 1,HOTELLARGE KITCHEN_ELEC_EQUIP_SCH,BUILDING STORY 9 THERMALZONE,2935.68,899.3,164396.597,55.999,182.812,0.200,0.500,0.100,0.200,General,0.000,49318.979
 ElectricEquipment Internal Gains Nominal, BUILDING STORY 9 THERMALZONE LARGEHOTEL LAUNDRY ELEC EQUIP 1,HOTELLARGE BLDG_EQUIP_SCH,BUILDING STORY 9 THERMALZONE,2935.68,899.3,15132.586,5.155,16.828,0.000,0.500,0.000,0.500,General,0.000,15132.586
 ElectricEquipment Internal Gains Nominal, BUILDING STORY 9 THERMALZONE LARGEHOTEL MECHANICAL ELEC EQUIP 1,HOTELLARGE BASEMENT_EQUIP_SCH,BUILDING STORY 9 THERMALZONE,2935.68,899.3,2774.901,0.945,3.086,0.000,0.500,0.000,0.500,General,0.000,2774.901
 ElectricEquipment Internal Gains Nominal, BUILDING STORY 9 THERMALZONE LARGEHOTEL RETAIL ELEC EQUIP 1,HOTELLARGE BLDG_EQUIP_SCH,BUILDING STORY 9 THERMALZONE,2935.68,899.3,4899.135,1.669,5.448,0.000,0.500,0.000,0.500,General,0.000,4899.135
 ElectricEquipment Internal Gains Nominal, BUILDING STORY 9 THERMALZONE LARGEHOTEL STORAGE ELEC EQUIP 1,HOTELLARGE BASEMENT_EQUIP_SCH,BUILDING STORY 9 THERMALZONE,2935.68,899.3,803.764,0.274,0.894,0.000,0.500,0.000,0.500,General,0.000,803.764
 ElectricEquipment Internal Gains Nominal, BUILDING STORY 7 THERMALZONE LARGEHOTEL BANQUET ELEC EQUIP 2,HOTELLARGE KITCHEN_ELEC_EQUIP_SCH,BUILDING STORY 7 THERMALZONE,2935.68,1574.5,106692.534,36.343,67.763,0.000,0.500,0.000,0.500,General,0.000,32007.760
 ElectricEquipment Internal Gains Nominal, BUILDING STORY 7 THERMALZONE LARGEHOTEL LOBBY ELEC EQUIP 1,HOTELLARGE BLDG_EQUIP_SCH,BUILDING STORY 7 THERMALZONE,2935.68,1574.5,11000.089,3.747,6.986,0.000,0.500,0.000,0.500,General,0.000,11000.089
 ElectricEquipment Internal Gains Nominal, BUILDING STORY 8 THERMALZONE LARGEHOTEL LOBBY ELEC EQUIP 2,HOTELLARGE BLDG_EQUIP_SCH,BUILDING STORY 8 THERMALZONE,2935.68,886.0,22097.778,7.527,24.940,0.000,0.500,0.000,0.500,General,0.000,22097.778
 ElectricEquipment Internal Gains Nominal, BUILDING STORY 6 THERMALZONE LARGEHOTEL GUESTROOM ELEC EQUIP 1,HOTELLARGE GUESTROOM_EQP_SCH_BASE,BUILDING STORY 6 THERMALZONE,2935.68,110.0,19116.891,6.512,173.857,0.000,0.500,0.000,0.500,General,0.000,19116.891
 ElectricEquipment Internal Gains Nominal, BUILDING STORY 2 THERMALZONE LARGEHOTEL GUESTROOM ELEC EQUIP 2,HOTELLARGE GUESTROOM_EQP_SCH_BASE,BUILDING STORY 2 THERMALZONE,2935.68,112.8,19812.837,6.749,175.630,0.000,0.500,0.000,0.500,General,0.000,19812.837
 ElectricEquipment Internal Gains Nominal, BUILDING STORY 5 THERMALZONE LARGEHOTEL GUESTROOM ELEC EQUIP 3,HOTELLARGE GUESTROOM_EQP_SCH_BASE,BUILDING STORY 5 THERMALZONE,2935.68,112.8,19812.837,6.749,175.630,0.000,0.500,0.000,0.500,General,0.000,19812.837
 ElectricEquipment Internal Gains Nominal, BUILDING STORY 10 THERMALZONE LARGEHOTEL GUESTROOM ELEC EQUIP 4,HOTELLARGE GUESTROOM_EQP_SCH_BASE,BUILDING STORY 10 THERMALZONE,2935.68,112.8,19812.837,6.749,175.630,0.000,0.500,0.000,0.500,General,0.000,19812.837
 ElectricEquipment Internal Gains Nominal, BUILDING STORY 1 THERMALZONE LARGEHOTEL GUESTROOM ELEC EQUIP 5,HOTELLARGE GUESTROOM_EQP_SCH_BASE,BUILDING STORY 1 THERMALZONE,2935.68,112.8,19812.837,6.749,175.630,0.000,0.500,0.000,0.500,General,0.000,19812.837
! <GasEquipment Internal Gains Nominal>,Name,Schedule Name,Zone Name,Zone Floor Area {m2},# Zone Occupants,Equipment Level {W},Equipment/Floor Area {W/m2},Equipment per person {W/person},Fraction Latent,Fraction Radiant,Fraction Lost,Fraction Convected,End-Use SubCategory,Nominal Minimum Equipment Level {W},Nominal Maximum Equipment Level {W}
 GasEquipment Internal Gains Nominal, BUILDING STORY 9 THERMALZONE LARGEHOTEL KITCHEN GAS EQUIP 1,HOTELLARGE KITCHEN_GAS_EQUIP_SCH,BUILDING STORY 9 THERMALZONE,2935.68,899.3,782923.156,266.692,870.624,0.100,0.200,0.700,0.000,General,0.000,234876.947
 GasEquipment Internal Gains Nominal, BUILDING STORY 9 THERMALZONE LARGEHOTEL LAUNDRY GAS EQUIP 1,HOTELLARGE BLDG_EQUIP_SCH,BUILDING STORY 9 THERMALZONE,2935.68,899.3,131577.125,44.820,146.316,0.000,0.500,0.000,0.500,General,0.000,131577.125
! <Shadowing/Sun Position Calculations Annual Simulations>, Calculation Method, Value {days}, Allowable Number Figures in Shadow Overlap {}, Polygon Clipping Algorithm, Sky Diffuse Modeling Algorithm, External Shading Calculation Method, Output External Shading Calculation Results, Disable Self-Shading Within Shading Zone Groups, Disable Self-Shading From Shading Zone Groups to Other Zones
Shadowing/Sun Position Calculations Annual Simulations,AverageOverDaysInFrequency,20,15000,SutherlandHodgman,SimpleSkyDiffuseModeling,InternalCalculation,No,No,No
! <Water Heater Information>,Type,Name,Volume {m3},Maximum Capacity {W},Standard Rated Recovery Efficiency, Standard Rated Energy Factor
! <ZoneInfiltration Airflow Stats Nominal>,Name,Schedule Name,Zone Name, Zone Floor Area {m2}, # Zone Occupants,Design Volume Flow Rate {m3/s},Volume Flow Rate/Floor Area {m3/s-m2},Volume Flow Rate/Exterior Surface Area {m3/s-m2},ACH - Air Changes per Hour,Equation A - Constant Term Coefficient {},Equation B - Temperature Term Coefficient {1/C},Equation C - Velocity Term Coefficient {s/m}, Equation D - Velocity Squared Term Coefficient {s2/m2}
 ZoneInfiltration Airflow Stats Nominal, BUILDING STORY 9 THERMALZONE LARGEHOTEL BANQUET A  - STORY GROUND INFILTRATION,ALWAYS ON DISCRETE,BUILDING STORY 9 THERMALZONE,2935.68,899.3,4.825E-002,1.644E-005,7.403E-005,1.972E-002,0.000,0.000,0.224,0.000
 ZoneInfiltration Airflow Stats Nominal, BUILDING STORY 9 THERMALZONE LARGEHOTEL BANQUET C  - STORY GROUND INFILTRATION,ALWAYS ON DISCRETE,BUILDING STORY 9 THERMALZONE,2935.68,899.3,4.825E-002,1.644E-005,7.403E-005,1.972E-002,0.000,0.000,0.224,0.000
 ZoneInfiltration Airflow Stats Nominal, BUILDING STORY 9 THERMALZONE LARGEHOTEL CAFE A  - STORY GROUND INFILTRATION,ALWAYS ON DISCRETE,BUILDING STORY 9 THERMALZONE,2935.68,899.3,4.574E-002,1.558E-005,7.016E-005,1.870E-002,0.000,0.000,0.224,0.000
 ZoneInfiltration Airflow Stats Nominal, BUILDING STORY 9 THERMALZONE LARGEHOTEL CAFE A END_A - STORY GROUND INFILTRATION,ALWAYS ON DISCRETE,BUILDING STORY 9 THERMALZONE,2935.68,899.3,2.087E-002,7.110E-006,3.202E-005,8.532E-003,0.000,0.000,0.224,0.000
 ZoneInfiltration Airflow Stats Nominal, BUILDING STORY 9 THERMALZONE LARGEHOTEL CAFE B END_A - STORY GROUND INFILTRATION,ALWAYS ON DISCRETE,BUILDING STORY 9 THERMALZONE,2935.68,899.3,3.391E-002,1.155E-005,5.202E-005,1.386E-002,0.000,0.000,0.224,0.000
 ZoneInfiltration Airflow Stats Nominal, BUILDING STORY 9 THERMALZONE LARGEHOTEL CAFE C  - STORY GROUND INFILTRATION,ALWAYS ON DISCRETE,BUILDING STORY 9 THERMALZONE,2935.68,899.3,4.574E-002,1.558E-005,7.016E-005,1.870E-002,0.000,0.000,0.224,0.000
 ZoneInfiltration Airflow Stats Nominal, BUILDING STORY 9 THERMALZONE LARGEHOTEL CAFE C END_A - STORY GROUND INFILTRATION,ALWAYS ON DISCRETE,BUILDING STORY 9 THERMALZONE,2935.68,899.3,2.087E-002,7.110E-006,3.202E-005,8.532E-003,0.000,0.000,0.224,0.000
 ZoneInfiltration Airflow Stats Nominal, BUILDING STORY 9 THERMALZONE LARGEHOTEL KITCHEN A  - STORY GROUND INFILTRATION,ALWAYS ON DISCRETE,BUILDING STORY 9 THERMALZONE,2935.68,899.3,3.079E-002,1.049E-005,4.724E-005,1.259E-002,0.000,0.000,0.224,0.000
 ZoneInfiltration Airflow Stats Nominal, BUILDING STORY 9 THERMALZONE LARGEHOTEL KITCHEN C  - STORY GROUND INFILTRATION,ALWAYS ON DISCRETE,BUILDING STORY 9 THERMALZONE,2935.68,899.3,3.079E-002,1.049E-005,4.724E-005,1.259E-002,0.000,0.000,0.224,0.000
 ZoneInfiltration Airflow Stats Nominal, BUILDING STORY 9 THERMALZONE LARGEHOTEL LAUNDRY A  - STORY GROUND INFILTRATION,ALWAYS ON DISCRETE,BUILDING STORY 9 THERMALZONE,2935.68,899.3,2.335E-002,7.953E-006,3.582E-005,9.544E-003,0.000,0.000,0.224,0.000
 ZoneInfiltration Airflow Stats Nominal, BUILDING STORY 9 THERMALZONE LARGEHOTEL LAUNDRY C  - STORY GROUND INFILTRATION,ALWAYS ON DISCRETE,BUILDING STORY 9 THERMALZONE,2935.68,899.3,2.335E-002,7.953E-006,3.582E-005,9.544E-003,0.000,0.000,0.224,0.000
 ZoneInfiltration Airflow Stats Nominal, BUILDING STORY 9 THERMALZONE LARGEHOTEL MECHANICAL A  - STORY GROUND INFILTRATION,ALWAYS ON DISCRETE,BUILDING STORY 9 THERMALZONE,2935.68,899.3,3.863E-002,1.316E-005,5.926E-005,1.579E-002,0.000,0.000,0.224,0.000
 ZoneInfiltration Airflow Stats Nominal, BUILDING STORY 9 THERMALZONE LARGEHOTEL MECHANICAL A END_B - STORY GROUND INFILTRATION,ALWAYS ON DISCRETE,BUILDING STORY 9 THERMALZONE,2935.68,899.3,2.087E-002,7.110E-006,3.202E-005,8.532E-003,0.000,0.000,0.224,0.000
 ZoneInfiltration Airflow Stats Nominal, BUILDING STORY 9 THERMALZONE LARGEHOTEL MECHANICAL B END_B - STORY GROUND INFILTRATION,ALWAYS ON DISCRETE,BUILDING STORY 9 THERMALZONE,2935.68,899.3,3.391E-002,1.155E-005,5.202E-005,1.386E-002,0.000,0.000,0.224,0.000
 ZoneInfiltration Airflow Stats Nominal, BUILDING STORY 9 THERMALZONE LARGEHOTEL MECHANICAL C  - STORY GROUND INFILTRATION,ALWAYS ON DISCRETE,BUILDING STORY 9 THERMALZONE,2935.68,899.3,3.863E-002,1.316E-005,5.926E-005,1.579E-002,0.000,0.000,0.224,0.000
 ZoneInfiltration Airflow Stats Nominal, BUILDING STORY 9 THERMALZONE LARGEHOTEL MECHANICAL C END_B - STORY GROUND INFILTRATION,ALWAYS ON DISCRETE,BUILDING STORY 9 THERMALZONE,2935.68,899.3,2.087E-002,7.110E-006,3.202E-005,8.532E-003,0.000,0.000,0.224,0.000
 ZoneInfiltration Airflow Stats Nominal, BUILDING STORY 9 THERMALZONE LARGEHOTEL RETAIL A  - STORY GROUND INFILTRATION,ALWAYS ON DISCRETE,BUILDING STORY 9 THERMALZONE,2935.68,899.3,4.331E-002,1.475E-005,6.645E-005,1.771E-002,0.000,0.000,0.224,0.000
 ZoneInfiltration Airflow Stats Nominal, BUILDING STORY 9 THERMALZONE LARGEHOTEL RETAIL C  - STORY GROUND INFILTRATION,ALWAYS ON DISCRETE,BUILDING STORY 9 THERMALZONE,2935.68,899.3,4.331E-002,1.475E-005,6.645E-005,1.771E-002,0.000,0.000,0.224,0.000
 ZoneInfiltration Airflow Stats Nominal, BUILDING STORY 9 THERMALZONE LARGEHOTEL STORAGE A  - STORY GROUND INFILTRATION,ALWAYS ON DISCRETE,BUILDING STORY 9 THERMALZONE,2935.68,899.3,2.842E-002,9.682E-006,4.361E-005,1.162E-002,0.000,0.000,0.224,0.000
 ZoneInfiltration Airflow Stats Nominal, BUILDING STORY 9 THERMALZONE LARGEHOTEL STORAGE C  - STORY GROUND INFILTRATION,ALWAYS ON DISCRETE,BUILDING STORY 9 THERMALZONE,2935.68,899.3,2.842E-002,9.682E-006,4.361E-005,1.162E-002,0.000,0.000,0.224,0.000
 ZoneInfiltration Airflow Stats Nominal, BUILDING STORY 7 THERMALZONE LARGEHOTEL BANQUET A  - STORY MID INFILTRATION,ALWAYS ON DISCRETE,BUILDING STORY 7 THERMALZONE,2935.68,1574.5,0.139,4.744E-005,2.136E-004,5.693E-002,0.000,0.000,0.224,0.000
 ZoneInfiltration Airflow Stats Nominal, BUILDING STORY 7 THERMALZONE LARGEHOTEL BANQUET A END_A - STORY MID INFILTRATION,ALWAYS ON DISCRETE,BUILDING STORY 7 THERMALZONE,2935.68,1574.5,2.087E-002,7.110E-006,3.202E-005,8.532E-003,0.000,0.000,0.224,0.000
 ZoneInfiltration Airflow Stats Nominal, BUILDING STORY 7 THERMALZONE LARGEHOTEL BANQUET B END_A - STORY MID INFILTRATION,ALWAYS ON DISCRETE,BUILDING STORY 7 THERMALZONE,2935.68,1574.5,3.391E-002,1.155E-005,5.202E-005,1.386E-002,0.000,0.000,0.224,0.000
 ZoneInfiltration Airflow Stats Nominal, BUILDING STORY 7 THERMALZONE LARGEHOTEL BANQUET C  - STORY MID INFILTRATION,ALWAYS ON DISCRETE,BUILDING STORY 7 THERMALZONE,2935.68,1574.5,0.139,4.744E-005,2.136E-004,5.693E-002,0.000,0.000,0.224,0.000
 ZoneInfiltration Airflow Stats Nominal, BUILDING STORY 7 THERMALZONE LARGEHOTEL BANQUET C END_A - STORY MID INFILTRATION,ALWAYS ON DISCRETE,BUILDING STORY 7 THERMALZONE,2935.68,1574.5,2.087E-002,7.110E-006,3.202E-005,8.532E-003,0.000,0.000,0.224,0.000
 ZoneInfiltration Airflow Stats Nominal, BUILDING STORY 7 THERMALZONE LARGEHOTEL LOBBY A  - STORY MID INFILTRATION,ALWAYS ON DISCRETE,BUILDING STORY 7 THERMALZONE,2935.68,1574.5,0.119,4.062E-005,1.829E-004,4.874E-002,0.000,0.000,0.224,0.000
 ZoneInfiltration Airflow Stats Nominal, BUILDING STORY 7 THERMALZONE LARGEHOTEL LOBBY A END_B - STORY MID INFILTRATION,ALWAYS ON DISCRETE,BUILDING STORY 7 THERMALZONE,2935.68,1574.5,2.087E-002,7.110E-006,3.202E-005,8.532E-003,0.000,0.000,0.224,0.000
 ZoneInfiltration Airflow Stats Nominal, BUILDING STORY 7 THERMALZONE LARGEHOTEL LOBBY B END_B - STORY MID INFILTRATION,ALWAYS ON DISCRETE,BUILDING STORY 7 THERMALZONE,2935.68,1574.5,3.391E-002,1.155E-005,5.202E-005,1.386E-002,0.000,0.000,0.224,0.000
 ZoneInfiltration Airflow Stats Nominal, BUILDING STORY 7 THERMALZONE LARGEHOTEL LOBBY C  - STORY MID INFILTRATION,ALWAYS ON DISCRETE,BUILDING STORY 7 THERMALZONE,2935.68,1574.5,0.119,4.062E-005,1.829E-004,4.874E-002,0.000,0.000,0.224,0.000
 ZoneInfiltration Airflow Stats Nominal, BUILDING STORY 7 THERMALZONE LARGEHOTEL LOBBY C END_B - STORY MID INFILTRATION,ALWAYS ON DISCRETE,BUILDING STORY 7 THERMALZONE,2935.68,1574.5,2.087E-002,7.110E-006,3.202E-005,8.532E-003,0.000,0.000,0.224,0.000
 ZoneInfiltration Airflow Stats Nominal, BUILDING STORY 8 THERMALZONE LARGEHOTEL CORRIDOR A  - STORY MID2 INFILTRATION,ALWAYS ON DISCRETE,BUILDING STORY 8 THERMALZONE,2935.68,886.0,4.648E-002,1.583E-005,1.296E-005,1.900E-002,0.000,0.000,0.224,0.000
 ZoneInfiltration Airflow Stats Nominal, BUILDING STORY 8 THERMALZONE LARGEHOTEL CORRIDOR A END_B - STORY MID2 INFILTRATION,ALWAYS ON DISCRETE,BUILDING STORY 8 THERMALZONE,2935.68,886.0,0.115,3.913E-005,3.202E-005,4.696E-002,0.000,0.000,0.224,0.000
 ZoneInfiltration Airflow Stats Nominal, BUILDING STORY 8 THERMALZONE LARGEHOTEL CORRIDOR B END_B - STORY MID2 INFILTRATION,ALWAYS ON DISCRETE,BUILDING STORY 8 THERMALZONE,2935.68,886.0,0.187,6.357E-005,5.202E-005,7.628E-002,0.000,0.000,0.224,0.000
 ZoneInfiltration Airflow Stats Nominal, BUILDING STORY 8 THERMALZONE LARGEHOTEL CORRIDOR C  - STORY MID2 INFILTRATION,ALWAYS ON DISCRETE,BUILDING STORY 8 THERMALZONE,2935.68,886.0,4.648E-002,1.583E-005,1.296E-005,1.900E-002,0.000,0.000,0.224,0.000
 ZoneInfiltration Airflow Stats Nominal, BUILDING STORY 8 THERMALZONE LARGEHOTEL CORRIDOR C END_B - STORY MID2 INFILTRATION,ALWAYS ON DISCRETE,BUILDING STORY 8 THERMALZONE,2935.68,886.0,0.115,3.913E-005,3.202E-005,4.696E-002,0.000,0.000,0.224,0.000
 ZoneInfiltration Airflow Stats Nominal, BUILDING STORY 8 THERMALZONE LARGEHOTEL LOBBY A  - STORY MID2 INFILTRATION,ALWAYS ON DISCRETE,BUILDING STORY 8 THERMALZONE,2935.68,886.0,1.376,4.688E-004,3.836E-004,0.563,0.000,0.000,0.224,0.000
 ZoneInfiltration Airflow Stats Nominal, BUILDING STORY 8 THERMALZONE LARGEHOTEL LOBBY A END_A - STORY MID2 INFILTRATION,ALWAYS ON DISCRETE,BUILDING STORY 8 THERMALZONE,2935.68,886.0,0.115,3.913E-005,3.202E-005,4.696E-002,0.000,0.000,0.224,0.000
 ZoneInfiltration Airflow Stats Nominal, BUILDING STORY 8 THERMALZONE LARGEHOTEL LOBBY B END_A - STORY MID2 INFILTRATION,ALWAYS ON DISCRETE,BUILDING STORY 8 THERMALZONE,2935.68,886.0,0.187,6.357E-005,5.202E-005,7.628E-002,0.000,0.000,0.224,0.000
 ZoneInfiltration Airflow Stats Nominal, BUILDING STORY 8 THERMALZONE LARGEHOTEL LOBBY C  - STORY MID2 INFILTRATION,ALWAYS ON DISCRETE,BUILDING STORY 8 THERMALZONE,2935.68,886.0,1.376,4.688E-004,3.836E-004,0.563,0.000,0.000,0.224,0.000
 ZoneInfiltration Airflow Stats Nominal, BUILDING STORY 8 THERMALZONE LARGEHOTEL LOBBY C END_A - STORY MID2 INFILTRATION,ALWAYS ON DISCRETE,BUILDING STORY 8 THERMALZONE,2935.68,886.0,0.115,3.913E-005,3.202E-005,4.696E-002,0.000,0.000,0.224,0.000
 ZoneInfiltration Airflow Stats Nominal, BUILDING STORY 4 THERMALZONE LARGEHOTEL CORRIDOR A  - STORY MID3 INFILTRATION,ALWAYS ON DISCRETE,BUILDING STORY 4 THERMALZONE,2935.68,31.6,0.259,8.805E-005,3.966E-004,0.106,0.000,0.000,0.224,0.000
 ZoneInfiltration Airflow Stats Nominal, BUILDING STORY 4 THERMALZONE LARGEHOTEL CORRIDOR A END_A - STORY MID3 INFILTRATION,ALWAYS ON DISCRETE,BUILDING STORY 4 THERMALZONE,2935.68,31.6,2.087E-002,7.110E-006,3.202E-005,8.532E-003,0.000,0.000,0.224,0.000
 ZoneInfiltration Airflow Stats Nominal, BUILDING STORY 4 THERMALZONE LARGEHOTEL CORRIDOR A END_B - STORY MID3 INFILTRATION,ALWAYS ON DISCRETE,BUILDING STORY 4 THERMALZONE,2935.68,31.6,2.087E-002,7.110E-006,3.202E-005,8.532E-003,0.000,0.000,0.224,0.000
 ZoneInfiltration Airflow Stats Nominal, BUILDING STORY 4 THERMALZONE LARGEHOTEL CORRIDOR B END_A - STORY MID3 INFILTRATION,ALWAYS ON DISCRETE,BUILDING STORY 4 THERMALZONE,2935.68,31.6,3.391E-002,1.155E-005,5.202E-005,1.386E-002,0.000,0.000,0.224,0.000
 ZoneInfiltration Airflow Stats Nominal, BUILDING STORY 4 THERMALZONE LARGEHOTEL CORRIDOR B END_B - STORY MID3 INFILTRATION,ALWAYS ON DISCRETE,BUILDING STORY 4 THERMALZONE,2935.68,31.6,3.391E-002,1.155E-005,5.202E-005,1.386E-002,0.000,0.000,0.224,0.000
 ZoneInfiltration Airflow Stats Nominal, BUILDING STORY 4 THERMALZONE LARGEHOTEL CORRIDOR C  - STORY MID3 INFILTRATION,ALWAYS ON DISCRETE,BUILDING STORY 4 THERMALZONE,2935.68,31.6,0.259,8.805E-005,3.966E-004,0.106,0.000,0.000,0.224,0.000
 ZoneInfiltration Airflow Stats Nominal, BUILDING STORY 4 THERMALZONE LARGEHOTEL CORRIDOR C END_A - STORY MID3 INFILTRATION,ALWAYS ON DISCRETE,BUILDING STORY 4 THERMALZONE,2935.68,31.6,2.087E-002,7.110E-006,3.202E-005,8.532E-003,0.000,0.000,0.224,0.000
 ZoneInfiltration Airflow Stats Nominal, BUILDING STORY 4 THERMALZONE LARGEHOTEL CORRIDOR C END_B - STORY MID3 INFILTRATION,ALWAYS ON DISCRETE,BUILDING STORY 4 THERMALZONE,2935.68,31.6,2.087E-002,7.110E-006,3.202E-005,8.532E-003,0.000,0.000,0.224,0.000
 ZoneInfiltration Airflow Stats Nominal, BUILDING STORY 3 THERMALZONE LARGEHOTEL CORRIDOR A  - STORY MID4 INFILTRATION,ALWAYS ON DISCRETE,BUILDING STORY 3 THERMALZONE,2935.68,31.6,0.259,8.805E-005,3.966E-004,0.106,0.000,0.000,0.224,0.000
 ZoneInfiltration Airflow Stats Nominal, BUILDING STORY 3 THERMALZONE LARGEHOTEL CORRIDOR A END_A - STORY MID4 INFILTRATION,ALWAYS ON DISCRETE,BUILDING STORY 3 THERMALZONE,2935.68,31.6,2.087E-002,7.110E-006,3.202E-005,8.532E-003,0.000,0.000,0.224,0.000
 ZoneInfiltration Airflow Stats Nominal, BUILDING STORY 3 THERMALZONE LARGEHOTEL CORRIDOR A END_B - STORY MID4 INFILTRATION,ALWAYS ON DISCRETE,BUILDING STORY 3 THERMALZONE,2935.68,31.6,2.087E-002,7.110E-006,3.202E-005,8.532E-003,0.000,0.000,0.224,0.000
 ZoneInfiltration Airflow Stats Nominal, BUILDING STORY 3 THERMALZONE LARGEHOTEL CORRIDOR B END_A - STORY MID4 INFILTRATION,ALWAYS ON DISCRETE,BUILDING STORY 3 THERMALZONE,2935.68,31.6,3.391E-002,1.155E-005,5.202E-005,1.386E-002,0.000,0.000,0.224,0.000
 ZoneInfiltration Airflow Stats Nominal, BUILDING STORY 3 THERMALZONE LARGEHOTEL CORRIDOR B END_B - STORY MID4 INFILTRATION,ALWAYS ON DISCRETE,BUILDING STORY 3 THERMALZONE,2935.68,31.6,3.391E-002,1.155E-005,5.202E-005,1.386E-002,0.000,0.000,0.224,0.000
 ZoneInfiltration Airflow Stats Nominal, BUILDING STORY 3 THERMALZONE LARGEHOTEL CORRIDOR C  - STORY MID4 INFILTRATION,ALWAYS ON DISCRETE,BUILDING STORY 3 THERMALZONE,2935.68,31.6,0.259,8.805E-005,3.966E-004,0.106,0.000,0.000,0.224,0.000
 ZoneInfiltration Airflow Stats Nominal, BUILDING STORY 3 THERMALZONE LARGEHOTEL CORRIDOR C END_A - STORY MID4 INFILTRATION,ALWAYS ON DISCRETE,BUILDING STORY 3 THERMALZONE,2935.68,31.6,2.087E-002,7.110E-006,3.202E-005,8.532E-003,0.000,0.000,0.224,0.000
 ZoneInfiltration Airflow Stats Nominal, BUILDING STORY 3 THERMALZONE LARGEHOTEL CORRIDOR C END_B - STORY MID4 INFILTRATION,ALWAYS ON DISCRETE,BUILDING STORY 3 THERMALZONE,2935.68,31.6,2.087E-002,7.110E-006,3.202E-005,8.532E-003,0.000,0.000,0.224,0.000
 ZoneInfiltration Airflow Stats Nominal, BUILDING STORY 6 THERMALZONE LARGEHOTEL CORRIDOR A  - STORY MID5 INFILTRATION,ALWAYS ON DISCRETE,BUILDING STORY 6 THERMALZONE,2935.68,110.0,2.025E-002,6.898E-006,3.106E-005,8.277E-003,0.000,0.000,0.224,0.000
 ZoneInfiltration Airflow Stats Nominal, BUILDING STORY 6 THERMALZONE LARGEHOTEL CORRIDOR B  - STORY MID5 INFILTRATION,ALWAYS ON DISCRETE,BUILDING STORY 6 THERMALZONE,2935.68,110.0,3.391E-002,1.155E-005,5.202E-005,1.386E-002,0.000,0.000,0.224,0.000
 ZoneInfiltration Airflow Stats Nominal, BUILDING STORY 6 THERMALZONE LARGEHOTEL CORRIDOR C  - STORY MID5 INFILTRATION,ALWAYS ON DISCRETE,BUILDING STORY 6 THERMALZONE,2935.68,110.0,2.025E-002,6.898E-006,3.106E-005,8.277E-003,0.000,0.000,0.224,0.000
 ZoneInfiltration Airflow Stats Nominal, BUILDING STORY 6 THERMALZONE LARGEHOTEL GUESTROOM A  - STORY MID5 INFILTRATION,ALWAYS ON DISCRETE,BUILDING STORY 6 THERMALZONE,2935.68,110.0,0.259,8.827E-005,3.975E-004,0.106,0.000,0.000,0.224,0.000
 ZoneInfiltration Airflow Stats Nominal, BUILDING STORY 6 THERMALZONE LARGEHOTEL GUESTROOM A END_A - STORY MID5 INFILTRATION,ALWAYS ON DISCRETE,BUILDING STORY 6 THERMALZONE,2935.68,110.0,2.087E-002,7.110E-006,3.202E-005,8.532E-003,0.000,0.000,0.224,0.000
 ZoneInfiltration Airflow Stats Nominal, BUILDING STORY 6 THERMALZONE LARGEHOTEL GUESTROOM B END_A - STORY MID5 INFILTRATION,ALWAYS ON DISCRETE,BUILDING STORY 6 THERMALZONE,2935.68,110.0,3.391E-002,1.155E-005,5.202E-005,1.386E-002,0.000,0.000,0.224,0.000
 ZoneInfiltration Airflow Stats Nominal, BUILDING STORY 6 THERMALZONE LARGEHOTEL GUESTROOM C  - STORY MID5 INFILTRATION,ALWAYS ON DISCRETE,BUILDING STORY 6 THERMALZONE,2935.68,110.0,0.259,8.827E-005,3.975E-004,0.106,0.000,0.000,0.224,0.000
 ZoneInfiltration Airflow Stats Nominal, BUILDING STORY 6 THERMALZONE LARGEHOTEL GUESTROOM C END_A - STORY MID5 INFILTRATION,ALWAYS ON DISCRETE,BUILDING STORY 6 THERMALZONE,2935.68,110.0,2.087E-002,7.110E-006,3.202E-005,8.532E-003,0.000,0.000,0.224,0.000
 ZoneInfiltration Airflow Stats Nominal, BUILDING STORY 2 THERMALZONE LARGEHOTEL GUESTROOM A  - STORY MID6 INFILTRATION,ALWAYS ON DISCRETE,BUILDING STORY 2 THERMALZONE,2935.68,112.8,0.259,8.805E-005,3.966E-004,0.106,0.000,0.000,0.224,0.000
 ZoneInfiltration Airflow Stats Nominal, BUILDING STORY 2 THERMALZONE LARGEHOTEL GUESTROOM A END_A - STORY MID6 INFILTRATION,ALWAYS ON DISCRETE,BUILDING STORY 2 THERMALZONE,2935.68,112.8,2.087E-002,7.110E-006,3.202E-005,8.532E-003,0.000,0.000,0.224,0.000
 ZoneInfiltration Airflow Stats Nominal, BUILDING STORY 2 THERMALZONE LARGEHOTEL GUESTROOM A END_B - STORY MID6 INFILTRATION,ALWAYS ON DISCRETE,BUILDING STORY 2 THERMALZONE,2935.68,112.8,2.087E-002,7.110E-006,3.202E-005,8.532E-003,0.000,0.000,0.224,0.000
 ZoneInfiltration Airflow Stats Nominal, BUILDING STORY 2 THERMALZONE LARGEHOTEL GUESTROOM B END_A - STORY MID6 INFILTRATION,ALWAYS ON DISCRETE,BUILDING STORY 2 THERMALZONE,2935.68,112.8,3.391E-002,1.155E-005,5.202E-005,1.386E-002,0.000,0.000,0.224,0.000
 ZoneInfiltration Airflow Stats Nominal, BUILDING STORY 2 THERMALZONE LARGEHOTEL GUESTROOM B END_B - STORY MID6 INFILTRATION,ALWAYS ON DISCRETE,BUILDING STORY 2 THERMALZONE,2935.68,112.8,3.391E-002,1.155E-005,5.202E-005,1.386E-002,0.000,0.000,0.224,0.000
 ZoneInfiltration Airflow Stats Nominal, BUILDING STORY 2 THERMALZONE LARGEHOTEL GUESTROOM C  - STORY MID6 INFILTRATION,ALWAYS ON DISCRETE,BUILDING STORY 2 THERMALZONE,2935.68,112.8,0.259,8.805E-005,3.966E-004,0.106,0.000,0.000,0.224,0.000
 ZoneInfiltration Airflow Stats Nominal, BUILDING STORY 2 THERMALZONE LARGEHOTEL GUESTROOM C END_A - STORY MID6 INFILTRATION,ALWAYS ON DISCRETE,BUILDING STORY 2 THERMALZONE,2935.68,112.8,2.087E-002,7.110E-006,3.202E-005,8.532E-003,0.000,0.000,0.224,0.000
 ZoneInfiltration Airflow Stats Nominal, BUILDING STORY 2 THERMALZONE LARGEHOTEL GUESTROOM C END_B - STORY MID6 INFILTRATION,ALWAYS ON DISCRETE,BUILDING STORY 2 THERMALZONE,2935.68,112.8,2.087E-002,7.110E-006,3.202E-005,8.532E-003,0.000,0.000,0.224,0.000
 ZoneInfiltration Airflow Stats Nominal, BUILDING STORY 5 THERMALZONE LARGEHOTEL GUESTROOM A  - STORY MID7 INFILTRATION,ALWAYS ON DISCRETE,BUILDING STORY 5 THERMALZONE,2935.68,112.8,0.259,8.805E-005,3.966E-004,0.106,0.000,0.000,0.224,0.000
 ZoneInfiltration Airflow Stats Nominal, BUILDING STORY 5 THERMALZONE LARGEHOTEL GUESTROOM A END_A - STORY MID7 INFILTRATION,ALWAYS ON DISCRETE,BUILDING STORY 5 THERMALZONE,2935.68,112.8,2.087E-002,7.110E-006,3.202E-005,8.532E-003,0.000,0.000,0.224,0.000
 ZoneInfiltration Airflow Stats Nominal, BUILDING STORY 5 THERMALZONE LARGEHOTEL GUESTROOM A END_B - STORY MID7 INFILTRATION,ALWAYS ON DISCRETE,BUILDING STORY 5 THERMALZONE,2935.68,112.8,2.087E-002,7.110E-006,3.202E-005,8.532E-003,0.000,0.000,0.224,0.000
 ZoneInfiltration Airflow Stats Nominal, BUILDING STORY 5 THERMALZONE LARGEHOTEL GUESTROOM B END_A - STORY MID7 INFILTRATION,ALWAYS ON DISCRETE,BUILDING STORY 5 THERMALZONE,2935.68,112.8,3.391E-002,1.155E-005,5.202E-005,1.386E-002,0.000,0.000,0.224,0.000
 ZoneInfiltration Airflow Stats Nominal, BUILDING STORY 5 THERMALZONE LARGEHOTEL GUESTROOM B END_B - STORY MID7 INFILTRATION,ALWAYS ON DISCRETE,BUILDING STORY 5 THERMALZONE,2935.68,112.8,3.391E-002,1.155E-005,5.202E-005,1.386E-002,0.000,0.000,0.224,0.000
 ZoneInfiltration Airflow Stats Nominal, BUILDING STORY 5 THERMALZONE LARGEHOTEL GUESTROOM C  - STORY MID7 INFILTRATION,ALWAYS ON DISCRETE,BUILDING STORY 5 THERMALZONE,2935.68,112.8,0.259,8.805E-005,3.966E-004,0.106,0.000,0.000,0.224,0.000
 ZoneInfiltration Airflow Stats Nominal, BUILDING STORY 5 THERMALZONE LARGEHOTEL GUESTROOM C END_A - STORY MID7 INFILTRATION,ALWAYS ON DISCRETE,BUILDING STORY 5 THERMALZONE,2935.68,112.8,2.087E-002,7.110E-006,3.202E-005,8.532E-003,0.000,0.000,0.224,0.000
 ZoneInfiltration Airflow Stats Nominal, BUILDING STORY 5 THERMALZONE LARGEHOTEL GUESTROOM C END_B - STORY MID7 INFILTRATION,ALWAYS ON DISCRETE,BUILDING STORY 5 THERMALZONE,2935.68,112.8,2.087E-002,7.110E-006,3.202E-005,8.532E-003,0.000,0.000,0.224,0.000
 ZoneInfiltration Airflow Stats Nominal, BUILDING STORY 10 THERMALZONE LARGEHOTEL GUESTROOM A  - STORY MID8 INFILTRATION,ALWAYS ON DISCRETE,BUILDING STORY 10 THERMALZONE,2935.68,112.8,1.423,4.846E-004,3.966E-004,0.582,0.000,0.000,0.224,0.000
 ZoneInfiltration Airflow Stats Nominal, BUILDING STORY 10 THERMALZONE LARGEHOTEL GUESTROOM A END_A - STORY MID8 INFILTRATION,ALWAYS ON DISCRETE,BUILDING STORY 10 THERMALZONE,2935.68,112.8,0.115,3.913E-005,3.202E-005,4.696E-002,0.000,0.000,0.224,0.000
 ZoneInfiltration Airflow Stats Nominal, BUILDING STORY 10 THERMALZONE LARGEHOTEL GUESTROOM A END_B - STORY MID8 INFILTRATION,ALWAYS ON DISCRETE,BUILDING STORY 10 THERMALZONE,2935.68,112.8,0.115,3.913E-005,3.202E-005,4.696E-002,0.000,0.000,0.224,0.000
 ZoneInfiltration Airflow Stats Nominal, BUILDING STORY 10 THERMALZONE LARGEHOTEL GUESTROOM B END_A - STORY MID8 INFILTRATION,ALWAYS ON DISCRETE,BUILDING STORY 10 THERMALZONE,2935.68,112.8,0.187,6.357E-005,5.202E-005,7.628E-002,0.000,0.000,0.224,0.000
 ZoneInfiltration Airflow Stats Nominal, BUILDING STORY 10 THERMALZONE LARGEHOTEL GUESTROOM B END_B - STORY MID8 INFILTRATION,ALWAYS ON DISCRETE,BUILDING STORY 10 THERMALZONE,2935.68,112.8,0.187,6.357E-005,5.202E-005,7.628E-002,0.000,0.000,0.224,0.000
 ZoneInfiltration Airflow Stats Nominal, BUILDING STORY 10 THERMALZONE LARGEHOTEL GUESTROOM C  - STORY MID8 INFILTRATION,ALWAYS ON DISCRETE,BUILDING STORY 10 THERMALZONE,2935.68,112.8,1.423,4.846E-004,3.966E-004,0.582,0.000,0.000,0.224,0.000
 ZoneInfiltration Airflow Stats Nominal, BUILDING STORY 10 THERMALZONE LARGEHOTEL GUESTROOM C END_A - STORY MID8 INFILTRATION,ALWAYS ON DISCRETE,BUILDING STORY 10 THERMALZONE,2935.68,112.8,0.115,3.913E-005,3.202E-005,4.696E-002,0.000,0.000,0.224,0.000
 ZoneInfiltration Airflow Stats Nominal, BUILDING STORY 10 THERMALZONE LARGEHOTEL GUESTROOM C END_B - STORY MID8 INFILTRATION,ALWAYS ON DISCRETE,BUILDING STORY 10 THERMALZONE,2935.68,112.8,0.115,3.913E-005,3.202E-005,4.696E-002,0.000,0.000,0.224,0.000
 ZoneInfiltration Airflow Stats Nominal, BUILDING STORY 1 THERMALZONE LARGEHOTEL GUESTROOM A  - STORY TOP INFILTRATION,ALWAYS ON DISCRETE,BUILDING STORY 1 THERMALZONE,2935.68,112.8,6.024E-002,2.052E-005,9.241E-005,2.462E-002,0.000,0.000,0.224,0.000
 ZoneInfiltration Airflow Stats Nominal, BUILDING STORY 1 THERMALZONE LARGEHOTEL GUESTROOM A END_A - STORY TOP INFILTRATION,ALWAYS ON DISCRETE,BUILDING STORY 1 THERMALZONE,2935.68,112.8,4.864E-003,1.657E-006,7.461E-006,1.988E-003,0.000,0.000,0.224,0.000
 ZoneInfiltration Airflow Stats Nominal, BUILDING STORY 1 THERMALZONE LARGEHOTEL GUESTROOM A END_B - STORY TOP INFILTRATION,ALWAYS ON DISCRETE,BUILDING STORY 1 THERMALZONE,2935.68,112.8,4.864E-003,1.657E-006,7.461E-006,1.988E-003,0.000,0.000,0.224,0.000
 ZoneInfiltration Airflow Stats Nominal, BUILDING STORY 1 THERMALZONE LARGEHOTEL GUESTROOM B END_A - STORY TOP INFILTRATION,ALWAYS ON DISCRETE,BUILDING STORY 1 THERMALZONE,2935.68,112.8,7.901E-003,2.691E-006,1.212E-005,3.230E-003,0.000,0.000,0.224,0.000
 ZoneInfiltration Airflow Stats Nominal, BUILDING STORY 1 THERMALZONE LARGEHOTEL GUESTROOM B END_B - STORY TOP INFILTRATION,ALWAYS ON DISCRETE,BUILDING STORY 1 THERMALZONE,2935.68,112.8,7.901E-003,2.691E-006,1.212E-005,3.230E-003,0.000,0.000,0.224,0.000
 ZoneInfiltration Airflow Stats Nominal, BUILDING STORY 1 THERMALZONE LARGEHOTEL GUESTROOM C  - STORY TOP INFILTRATION,ALWAYS ON DISCRETE,BUILDING STORY 1 THERMALZONE,2935.68,112.8,6.024E-002,2.052E-005,9.241E-005,2.462E-002,0.000,0.000,0.224,0.000
 ZoneInfiltration Airflow Stats Nominal, BUILDING STORY 1 THERMALZONE LARGEHOTEL GUESTROOM C END_A - STORY TOP INFILTRATION,ALWAYS ON DISCRETE,BUILDING STORY 1 THERMALZONE,2935.68,112.8,4.864E-003,1.657E-006,7.461E-006,1.988E-003,0.000,0.000,0.224,0.000
 ZoneInfiltration Airflow Stats Nominal, BUILDING STORY 1 THERMALZONE LARGEHOTEL GUESTROOM C END_B - STORY TOP INFILTRATION,ALWAYS ON DISCRETE,BUILDING STORY 1 THERMALZONE,2935.68,112.8,4.864E-003,1.657E-006,7.461E-006,1.988E-003,0.000,0.000,0.224,0.000
! <AirFlow Model>, Simple
 AirFlow Model, Simple
! <RoomAir Model>, Zone Name, Mixing/Mundt/UCSDDV/UCSDCV/UCSDUFI/UCSDUFE/User Defined
RoomAir Model,BUILDING STORY 1 THERMALZONE,Mixing/Well-Stirred
RoomAir Model,BUILDING STORY 10 THERMALZONE,Mixing/Well-Stirred
RoomAir Model,BUILDING STORY 2 THERMALZONE,Mixing/Well-Stirred
RoomAir Model,BUILDING STORY 3 THERMALZONE,Mixing/Well-Stirred
RoomAir Model,BUILDING STORY 4 THERMALZONE,Mixing/Well-Stirred
RoomAir Model,BUILDING STORY 5 THERMALZONE,Mixing/Well-Stirred
RoomAir Model,BUILDING STORY 6 THERMALZONE,Mixing/Well-Stirred
RoomAir Model,BUILDING STORY 7 THERMALZONE,Mixing/Well-Stirred
RoomAir Model,BUILDING STORY 8 THERMALZONE,Mixing/Well-Stirred
RoomAir Model,BUILDING STORY 9 THERMALZONE,Mixing/Well-Stirred
! <AirflowNetwork Model:Control>, No Multizone or Distribution/Multizone with Distribution/Multizone without Distribution/Multizone with Distribution only during Fan Operation
AirflowNetwork Model:Control,NoMultizoneOrDistribution
! <Zone Volume Capacitance Multiplier>, Sensible Heat Capacity Multiplier, Moisture Capacity Multiplier, Carbon Dioxide Capacity Multiplier, Generic Contaminant Capacity Multiplier
Zone Volume Capacitance Multiplier,   1.000 ,   1.000,   1.000,   1.000
! <Load Timesteps in Zone Design Calculation Averaging Window>, Value
 Load Timesteps in Zone Design Calculation Averaging Window,    1
! <Heating Sizing Factor Information>, Sizing Factor ID, Value
 Heating Sizing Factor Information, Global,   1.2500    
 Heating Sizing Factor Information, Zone BUILDING STORY 1 THERMALZONE,   1.2500    
 Heating Sizing Factor Information, Zone BUILDING STORY 10 THERMALZONE,   1.2500    
 Heating Sizing Factor Information, Zone BUILDING STORY 2 THERMALZONE,   1.2500    
 Heating Sizing Factor Information, Zone BUILDING STORY 3 THERMALZONE,   1.2500    
 Heating Sizing Factor Information, Zone BUILDING STORY 4 THERMALZONE,   1.2500    
 Heating Sizing Factor Information, Zone BUILDING STORY 5 THERMALZONE,   1.2500    
 Heating Sizing Factor Information, Zone BUILDING STORY 6 THERMALZONE,   1.2500    
 Heating Sizing Factor Information, Zone BUILDING STORY 7 THERMALZONE,   1.2500    
 Heating Sizing Factor Information, Zone BUILDING STORY 8 THERMALZONE,   1.2500    
 Heating Sizing Factor Information, Zone BUILDING STORY 9 THERMALZONE,   1.2500    
! <Cooling Sizing Factor Information>, Sizing Factor ID, Value
 Cooling Sizing Factor Information, Global,   1.1500    
 Cooling Sizing Factor Information, Zone BUILDING STORY 1 THERMALZONE,   1.1500    
 Cooling Sizing Factor Information, Zone BUILDING STORY 10 THERMALZONE,   1.1500    
 Cooling Sizing Factor Information, Zone BUILDING STORY 2 THERMALZONE,   1.1500    
 Cooling Sizing Factor Information, Zone BUILDING STORY 3 THERMALZONE,   1.1500    
 Cooling Sizing Factor Information, Zone BUILDING STORY 4 THERMALZONE,   1.1500    
 Cooling Sizing Factor Information, Zone BUILDING STORY 5 THERMALZONE,   1.1500    
 Cooling Sizing Factor Information, Zone BUILDING STORY 6 THERMALZONE,   1.1500    
 Cooling Sizing Factor Information, Zone BUILDING STORY 7 THERMALZONE,   1.1500    
 Cooling Sizing Factor Information, Zone BUILDING STORY 8 THERMALZONE,   1.1500    
 Cooling Sizing Factor Information, Zone BUILDING STORY 9 THERMALZONE,   1.1500    
! <Zone Sizing Information>, Zone Name, Load Type, Calc Des Load {W}, User Des Load {W}, Calc Des Air Flow Rate {m3/s}, User Des Air Flow Rate {m3/s}, Design Day Name, Date/Time of Peak, Temperature at Peak {C}, Humidity Ratio at Peak {kgWater/kgDryAir}, Floor Area {m2}, # Occupants, Calc Outdoor Air Flow Rate {m3/s}, Calc DOAS Heat Addition Rate {W}
 Zone Sizing Information, BUILDING STORY 1 THERMALZONE, Cooling, 59132.01631, 68001.81875, 4.59739, 5.28700, BUFFALO NIAGARA INTL AP ANN CLG .4% CONDNS DB=>MWB, 7/21 07:00:00, 21.83700, 1.33455E-002, 2935.68221, 112.80993, 0.79861, 0.00000
 Zone Sizing Information, BUILDING STORY 1 THERMALZONE, Heating, 26475.16088, 33093.95110, 0.76261, 0.95326, BUFFALO NIAGARA INTL AP ANN HTG 99.6% CONDNS DB, 1/21 24:00:00, -16.30000, 9.24091E-004, 2935.68221, 112.80993, 0.79861, 0.00000
 Zone Sizing Information, BUILDING STORY 10 THERMALZONE, Cooling, 123454.15984, 141972.28382, 10.21358, 11.74562, BUFFALO NIAGARA INTL AP ANN CLG .4% CONDNS DB=>MWB, 7/21 15:00:00, 30.30000, 1.33455E-002, 2935.68221, 112.80993, 0.79861, 0.00000
 Zone Sizing Information, BUILDING STORY 10 THERMALZONE, Heating, 201529.24065, 251911.55081, 5.79701, 7.24626, BUFFALO NIAGARA INTL AP ANN HTG 99.6% CONDNS DB, 1/21 24:00:00, -16.30000, 9.24091E-004, 2935.68221, 112.80993, 0.79861, 0.00000
 Zone Sizing Information, BUILDING STORY 2 THERMALZONE, Cooling, 91103.55575, 104769.08912, 7.52988, 8.65936, BUFFALO NIAGARA INTL AP ANN CLG .4% CONDNS DB=>MWB, 7/21 17:00:00, 28.99800, 1.33455E-002, 2935.68221, 112.80993, 0.79861, 0.00000
 Zone Sizing Information, BUILDING STORY 2 THERMALZONE, Heating, 41646.01293, 52057.51616, 1.19937, 1.49921, BUFFALO NIAGARA INTL AP ANN HTG 99.6% CONDNS DB, 1/21 24:00:00, -16.30000, 9.24091E-004, 2935.68221, 112.80993, 0.79861, 0.00000
 Zone Sizing Information, BUILDING STORY 3 THERMALZONE, Cooling, 45130.76236, 51900.37672, 3.35734, 3.86094, BUFFALO NIAGARA INTL AP ANN CLG .4% CONDNS DB=>MWB, 7/21 17:00:00, 28.99800, 1.33455E-002, 2935.68221, 31.59942, 0.74566, 0.00000
 Zone Sizing Information, BUILDING STORY 3 THERMALZONE, Heating, 44268.69620, 55335.87025, 1.94579, 2.43224, BUFFALO NIAGARA INTL AP ANN HTG 99.6% CONDNS DB, 1/21 24:00:00, -16.30000, 9.24091E-004, 2935.68221, 31.59942, 0.74566, 0.00000
 Zone Sizing Information, BUILDING STORY 4 THERMALZONE, Cooling, 45072.07187, 51832.88265, 3.35304, 3.85599, BUFFALO NIAGARA INTL AP ANN CLG .4% CONDNS DB=>MWB, 7/21 17:00:00, 28.99800, 1.33455E-002, 2935.68221, 31.59942, 0.74566, 0.00000
 Zone Sizing Information, BUILDING STORY 4 THERMALZONE, Heating, 46312.95399, 57891.19248, 2.03558, 2.54448, BUFFALO NIAGARA INTL AP ANN HTG 99.6% CONDNS DB, 1/21 24:00:00, -16.30000, 9.24091E-004, 2935.68221, 31.59942, 0.74566, 0.00000
 Zone Sizing Information, BUILDING STORY 5 THERMALZONE, Cooling, 89050.04077, 102407.54689, 7.36065, 8.46474, BUFFALO NIAGARA INTL AP ANN CLG .4% CONDNS DB=>MWB, 7/21 17:00:00, 28.99800, 1.33455E-002, 2935.68221, 112.80993, 0.79861, 0.00000
 Zone Sizing Information, BUILDING STORY 5 THERMALZONE, Heating, 48028.89802, 60036.12252, 1.38308, 1.72885, BUFFALO NIAGARA INTL AP ANN HTG 99.6% CONDNS DB, 1/21 24:00:00, -16.30000, 9.24091E-004, 2935.68221, 112.80993, 0.79861, 0.00000
 Zone Sizing Information, BUILDING STORY 6 THERMALZONE, Cooling, 87466.68032, 100586.68237, 7.22984, 8.31432, BUFFALO NIAGARA INTL AP ANN CLG .4% CONDNS DB=>MWB, 7/21 17:00:00, 28.99800, 1.33455E-002, 2935.68221, 109.95733, 0.79675, 0.00000
 Zone Sizing Information, BUILDING STORY 6 THERMALZONE, Heating, 49471.21856, 61839.02320, 1.42458, 1.78073, BUFFALO NIAGARA INTL AP ANN HTG 99.6% CONDNS DB, 1/21 24:00:00, -16.30000, 9.24091E-004, 2935.68221, 109.95733, 0.79675, 0.00000
 Zone Sizing Information, BUILDING STORY 7 THERMALZONE, Cooling, 215548.08971, 247880.30317, 16.07881, 18.49064, BUFFALO NIAGARA INTL AP ANN CLG .4% CONDNS DB=>MWB, 7/21 17:00:00, 28.99800, 1.33455E-002, 2935.68221, 1574.49011, 13.82324, 0.00000
 Zone Sizing Information, BUILDING STORY 7 THERMALZONE, Heating, 50703.58597, 63379.48246, 2.22842, 13.82324, BUFFALO NIAGARA INTL AP ANN HTG 99.6% CONDNS DB, 1/21 24:00:00, -16.30000, 9.24091E-004, 2935.68221, 1574.49011, 13.82324, 0.00000
 Zone Sizing Information, BUILDING STORY 8 THERMALZONE, Cooling, 173231.76559, 199216.53043, 12.91291, 14.84985, BUFFALO NIAGARA INTL AP ANN CLG .4% CONDNS DB=>MWB, 7/21 15:00:00, 30.30000, 1.33455E-002, 2935.68221, 886.04683, 6.30779, 0.00000
 Zone Sizing Information, BUILDING STORY 8 THERMALZONE, Heating, 190984.70722, 238730.88402, 8.38428, 10.48036, BUFFALO NIAGARA INTL AP ANN HTG 99.6% CONDNS DB, 1/21 24:00:00, -16.30000, 9.24091E-004, 2935.68221, 886.04683, 6.30779, 0.00000
 Zone Sizing Information, BUILDING STORY 9 THERMALZONE, Cooling, 368997.72554, 424347.38437, 27.49821, 31.62294, BUFFALO NIAGARA INTL AP ANN CLG .4% CONDNS DB=>MWB, 7/21 09:00:00, 25.18500, 1.33455E-002, 2935.68221, 899.26684, 9.41913, 0.00000
 Zone Sizing Information, BUILDING STORY 9 THERMALZONE, Heating, 50895.06279, 63618.82849, 2.23677, 9.41913, BUFFALO NIAGARA INTL AP ANN HTG 99.6% CONDNS DB, 1/21 24:00:00, -16.30000, 9.24091E-004, 2935.68221, 899.26684, 9.41913, 0.00000
! <System Sizing Information>, System Name, Load Type, Peak Load Kind, User Design Capacity, Calc Des Air Flow Rate [m3/s], User Des Air Flow Rate [m3/s], Design Day Name, Date/Time of Peak
 System Sizing Information, 1 ZONE VAV, Cooling, Sensible, 55537.91, 3.86094, 3.86094, BUFFALO NIAGARA INTL AP ANN CLG .4% CONDNS DB=>MWB, 7/21 00:00:00
 System Sizing Information, 1 ZONE VAV, Heating, Sensible, 9270.78, 2.43224, 2.43224, BUFFALO NIAGARA INTL AP ANN HTG 99.6% CONDNS DB, 1/21 01:00:00
 System Sizing Information, 1 ZONE VAV 1, Cooling, Sensible, 55520.84, 3.85599, 3.85599, BUFFALO NIAGARA INTL AP ANN CLG .4% CONDNS DB=>MWB, 7/21 00:00:00
 System Sizing Information, 1 ZONE VAV 1, Heating, Sensible, 8184.06, 2.54448, 2.54448, BUFFALO NIAGARA INTL AP ANN HTG 99.6% CONDNS DB, 1/21 01:00:00
 System Sizing Information, 1 ZONE VAV 2, Cooling, Sensible, 346014.07, 18.49935, 18.49935, BUFFALO NIAGARA INTL AP ANN CLG .4% CONDNS DB=>MWB, 7/21 00:00:00
 System Sizing Information, 1 ZONE VAV 2, Heating, Sensible, 474150.75, 13.82324, 13.82324, BUFFALO NIAGARA INTL AP ANN HTG 99.6% CONDNS DB, 1/21 01:00:00
 System Sizing Information, 1 ZONE VAV 3, Cooling, Sensible, 243203.31, 14.84985, 14.84985, BUFFALO NIAGARA INTL AP ANN CLG .4% CONDNS DB=>MWB, 7/21 00:00:00
 System Sizing Information, 1 ZONE VAV 3, Heating, Sensible, 176070.46, 10.48036, 10.48036, BUFFALO NIAGARA INTL AP ANN HTG 99.6% CONDNS DB, 1/21 01:00:00
 System Sizing Information, 1 ZONE VAV 4, Cooling, Sensible, 486466.18, 31.62294, 31.62294, BUFFALO NIAGARA INTL AP ANN CLG .4% CONDNS DB=>MWB, 7/21 00:00:00
 System Sizing Information, 1 ZONE VAV 4, Heating, Sensible, 323085.43, 9.41913, 9.41913, BUFFALO NIAGARA INTL AP ANN HTG 99.6% CONDNS DB, 1/21 01:00:00
! <Component Sizing Information>, Component Type, Component Name, Input Field Description, Value
 Component Sizing Information, ZoneHVAC:PackagedTerminalAirConditioner, BUILDING STORY 1 THERMALZONE PTAC, Design Size Cooling Supply Air Flow Rate [m3/s], 5.28700
 Component Sizing Information, ZoneHVAC:PackagedTerminalAirConditioner, BUILDING STORY 1 THERMALZONE PTAC, Design Size Heating Supply Air Flow Rate [m3/s], 5.28700
 Component Sizing Information, ZoneHVAC:PackagedTerminalAirConditioner, BUILDING STORY 1 THERMALZONE PTAC, Design Size No Load Supply Air Flow Rate [m3/s], 5.28700
 Component Sizing Information, ZoneHVAC:PackagedTerminalAirConditioner, BUILDING STORY 1 THERMALZONE PTAC, Design Size Outdoor Air Flow Rate During Cooling Operation [m3/s], 0.79861
 Component Sizing Information, ZoneHVAC:PackagedTerminalAirConditioner, BUILDING STORY 1 THERMALZONE PTAC, Design Size Outdoor Air Flow Rate During Heating Operation [m3/s], 0.79861
 Component Sizing Information, ZoneHVAC:PackagedTerminalAirConditioner, BUILDING STORY 1 THERMALZONE PTAC, Design Size Outdoor Air Flow Rate When No Cooling or Heating is Needed [m3/s], 0.79861
 Component Sizing Information, Coil:Heating:Water, HOT WATER LOOP WATER HTG COIL, Design Size Rated Capacity [W], 219203.22331
 Component Sizing Information, Coil:Heating:Water, HOT WATER LOOP WATER HTG COIL, Design Size Maximum Water Flow Rate [m3/s], 4.79460E-003
 Component Sizing Information, Coil:Heating:Water, HOT WATER LOOP WATER HTG COIL, Design Size U-Factor Times Area Value [W/K], 5298.57336
! <Water Heating Coil Capacity Information>,Component Type,Name,Nominal Total Capacity {W}
Water Heating Coil Capacity Information,Coil:Heating:Water,HOT WATER LOOP WATER HTG COIL,215352.11
 Component Sizing Information, Coil:Cooling:DX:SingleSpeed, BUILDING STORY 1 THERMALZONE PTAC 1SPD DX AC CLG COIL 254KBTU/HR 9.3EER, Design Size Rated Air Flow Rate [m3/s], 5.28700
 Component Sizing Information, Coil:Cooling:DX:SingleSpeed, BUILDING STORY 1 THERMALZONE PTAC 1SPD DX AC CLG COIL 254KBTU/HR 9.3EER, Design Size Gross Rated Total Cooling Capacity [W], 94339.26598
 Component Sizing Information, Coil:Cooling:DX:SingleSpeed, BUILDING STORY 1 THERMALZONE PTAC 1SPD DX AC CLG COIL 254KBTU/HR 9.3EER, Design Size Gross Rated Sensible Heat Ratio, 0.80007
! <DX Cooling Coil Standard Rating Information>, Component Type, Component Name, Standard Rating (Net) Cooling Capacity {W}, Standard Rated Net COP {W/W}, EER {Btu/W-h}, SEER {Btu/W-h}, IEER {Btu/W-h}
 DX Cooling Coil Standard Rating Information, Coil:Cooling:DX:SingleSpeed, BUILDING STORY 1 THERMALZONE PTAC 1SPD DX AC CLG COIL 254KBTU/HR 9.3EER, 90235.7, 2.71, 9.26, 9.82, 9.30
 Component Sizing Information, Fan:ConstantVolume, BUILDING STORY 1 THERMALZONE PTAC FAN, Design Size Maximum Flow Rate [m3/s], 5.28700
 Component Sizing Information, ZoneHVAC:PackagedTerminalAirConditioner, BUILDING STORY 10 THERMALZONE PTAC, Design Size Cooling Supply Air Flow Rate [m3/s], 11.74562
 Component Sizing Information, ZoneHVAC:PackagedTerminalAirConditioner, BUILDING STORY 10 THERMALZONE PTAC, Design Size Heating Supply Air Flow Rate [m3/s], 11.74562
 Component Sizing Information, ZoneHVAC:PackagedTerminalAirConditioner, BUILDING STORY 10 THERMALZONE PTAC, Design Size No Load Supply Air Flow Rate [m3/s], 11.74562
 Component Sizing Information, ZoneHVAC:PackagedTerminalAirConditioner, BUILDING STORY 10 THERMALZONE PTAC, Design Size Outdoor Air Flow Rate During Cooling Operation [m3/s], 0.79861
 Component Sizing Information, ZoneHVAC:PackagedTerminalAirConditioner, BUILDING STORY 10 THERMALZONE PTAC, Design Size Outdoor Air Flow Rate During Heating Operation [m3/s], 0.79861
 Component Sizing Information, ZoneHVAC:PackagedTerminalAirConditioner, BUILDING STORY 10 THERMALZONE PTAC, Design Size Outdoor Air Flow Rate When No Cooling or Heating is Needed [m3/s], 0.79861
 Component Sizing Information, Coil:Heating:Water, HOT WATER LOOP WATER HTG COIL 1, Design Size Rated Capacity [W], 443947.56125
 Component Sizing Information, Coil:Heating:Water, HOT WATER LOOP WATER HTG COIL 1, Design Size Maximum Water Flow Rate [m3/s], 9.71039E-003
 Component Sizing Information, Coil:Heating:Water, HOT WATER LOOP WATER HTG COIL 1, Design Size U-Factor Times Area Value [W/K], 11094.18778
Water Heating Coil Capacity Information,Coil:Heating:Water,HOT WATER LOOP WATER HTG COIL 1,457429.32
 Component Sizing Information, Coil:Cooling:DX:SingleSpeed, BUILDING STORY 10 THERMALZONE PTAC 1SPD DX AC CLG COIL 716KBTU/HR 9.3EER, Design Size Rated Air Flow Rate [m3/s], 11.74562
 Component Sizing Information, Coil:Cooling:DX:SingleSpeed, BUILDING STORY 10 THERMALZONE PTAC 1SPD DX AC CLG COIL 716KBTU/HR 9.3EER, Design Size Gross Rated Total Cooling Capacity [W], 228388.00054
 Component Sizing Information, Coil:Cooling:DX:SingleSpeed, BUILDING STORY 10 THERMALZONE PTAC 1SPD DX AC CLG COIL 716KBTU/HR 9.3EER, Design Size Gross Rated Sensible Heat Ratio, 0.78399
 DX Cooling Coil Standard Rating Information, Coil:Cooling:DX:SingleSpeed, BUILDING STORY 10 THERMALZONE PTAC 1SPD DX AC CLG COIL 716KBTU/HR 9.3EER, 219268.4, 2.75, 9.39, 9.96, 9.49
 Component Sizing Information, Fan:ConstantVolume, BUILDING STORY 10 THERMALZONE PTAC FAN, Design Size Maximum Flow Rate [m3/s], 11.74562
 Component Sizing Information, ZoneHVAC:PackagedTerminalAirConditioner, BUILDING STORY 2 THERMALZONE PTAC, Design Size Cooling Supply Air Flow Rate [m3/s], 8.65936
 Component Sizing Information, ZoneHVAC:PackagedTerminalAirConditioner, BUILDING STORY 2 THERMALZONE PTAC, Design Size Heating Supply Air Flow Rate [m3/s], 8.65936
 Component Sizing Information, ZoneHVAC:PackagedTerminalAirConditioner, BUILDING STORY 2 THERMALZONE PTAC, Design Size No Load Supply Air Flow Rate [m3/s], 8.65936
 Component Sizing Information, ZoneHVAC:PackagedTerminalAirConditioner, BUILDING STORY 2 THERMALZONE PTAC, Design Size Outdoor Air Flow Rate During Cooling Operation [m3/s], 0.79861
 Component Sizing Information, ZoneHVAC:PackagedTerminalAirConditioner, BUILDING STORY 2 THERMALZONE PTAC, Design Size Outdoor Air Flow Rate During Heating Operation [m3/s], 0.79861
 Component Sizing Information, ZoneHVAC:PackagedTerminalAirConditioner, BUILDING STORY 2 THERMALZONE PTAC, Design Size Outdoor Air Flow Rate When No Cooling or Heating is Needed [m3/s], 0.79861
 Component Sizing Information, Coil:Heating:Water, HOT WATER LOOP WATER HTG COIL 2, Design Size Rated Capacity [W], 336332.35034
 Component Sizing Information, Coil:Heating:Water, HOT WATER LOOP WATER HTG COIL 2, Design Size Maximum Water Flow Rate [m3/s], 7.35654E-003
 Component Sizing Information, Coil:Heating:Water, HOT WATER LOOP WATER HTG COIL 2, Design Size U-Factor Times Area Value [W/K], 8321.15344
Water Heating Coil Capacity Information,Coil:Heating:Water,HOT WATER LOOP WATER HTG COIL 2,341722.31
 Component Sizing Information, Coil:Cooling:DX:SingleSpeed, BUILDING STORY 2 THERMALZONE PTAC 1SPD DX AC CLG COIL 484KBTU/HR 9.3EER, Design Size Rated Air Flow Rate [m3/s], 8.65936
 Component Sizing Information, Coil:Cooling:DX:SingleSpeed, BUILDING STORY 2 THERMALZONE PTAC 1SPD DX AC CLG COIL 484KBTU/HR 9.3EER, Design Size Gross Rated Total Cooling Capacity [W], 151462.02578
 Component Sizing Information, Coil:Cooling:DX:SingleSpeed, BUILDING STORY 2 THERMALZONE PTAC 1SPD DX AC CLG COIL 484KBTU/HR 9.3EER, Design Size Gross Rated Sensible Heat Ratio, 0.80095
 DX Cooling Coil Standard Rating Information, Coil:Cooling:DX:SingleSpeed, BUILDING STORY 2 THERMALZONE PTAC 1SPD DX AC CLG COIL 484KBTU/HR 9.3EER, 144741.4, 2.70, 9.23, 9.79, 9.25
 Component Sizing Information, Fan:ConstantVolume, BUILDING STORY 2 THERMALZONE PTAC FAN, Design Size Maximum Flow Rate [m3/s], 8.65936
 Component Sizing Information, AirTerminal:SingleDuct:VAV:Reheat, BUILDING STORY 3 THERMALZONE VAV TERMINAL, Design Size Maximum Air Flow Rate [m3/s], 3.86094
 Component Sizing Information, AirTerminal:SingleDuct:VAV:Reheat, BUILDING STORY 3 THERMALZONE VAV TERMINAL, Design Size Constant Minimum Air Flow Fraction, 0.57939
 Component Sizing Information, AirTerminal:SingleDuct:VAV:Reheat, BUILDING STORY 3 THERMALZONE VAV TERMINAL, User-Specified Constant Minimum Air Flow Fraction, 0.30000
 Component Sizing Information, AirTerminal:SingleDuct:VAV:Reheat, BUILDING STORY 3 THERMALZONE VAV TERMINAL, Design Size Minimum Air Flow Rate [m3/s], 1.15828
 Component Sizing Information, AirTerminal:SingleDuct:VAV:Reheat, BUILDING STORY 3 THERMALZONE VAV TERMINAL, Design Size Maximum Flow per Zone Floor Area during Reheat [m3/s-m2], 3.94553E-004
 Component Sizing Information, AirTerminal:SingleDuct:VAV:Reheat, BUILDING STORY 3 THERMALZONE VAV TERMINAL, Design Size Maximum Flow Fraction during Reheat [], 0.30000
 Component Sizing Information, AirTerminal:SingleDuct:VAV:Reheat, BUILDING STORY 3 THERMALZONE VAV TERMINAL, Design Size Maximum Reheat Water Flow Rate [m3/s], 1.73257E-003
 Component Sizing Information, AirTerminal:SingleDuct:VAV:Reheat, BUILDING STORY 3 THERMALZONE VAV TERMINAL, Design Size Reheat Coil Sizing Air Volume Flow Rate [m3/s], 2.43224
 Component Sizing Information, AirTerminal:SingleDuct:VAV:Reheat, BUILDING STORY 3 THERMALZONE VAV TERMINAL, Design Size Reheat Coil Sizing Inlet Air Temperature [C], 12.77778
 Component Sizing Information, AirTerminal:SingleDuct:VAV:Reheat, BUILDING STORY 3 THERMALZONE VAV TERMINAL, Design Size Reheat Coil Sizing Inlet Air Humidity Ratio [kgWater/kgDryAir], 8.00000E-003
 Component Sizing Information, Coil:Heating:Water, BUILDING STORY 3 THERMALZONE REHEAT COIL, Design Size Rated Capacity [W], 79211.16797
 Component Sizing Information, Coil:Heating:Water, BUILDING STORY 3 THERMALZONE REHEAT COIL, Design Size Maximum Water Flow Rate [m3/s], 1.73257E-003
 Component Sizing Information, Coil:Heating:Water, BUILDING STORY 3 THERMALZONE REHEAT COIL, Design Size U-Factor Times Area Value [W/K], 1644.52100
Water Heating Coil Capacity Information,Coil:Heating:Water,BUILDING STORY 3 THERMALZONE REHEAT COIL,59536.31
 Component Sizing Information, AirTerminal:SingleDuct:VAV:Reheat, BUILDING STORY 4 THERMALZONE VAV TERMINAL, Design Size Maximum Air Flow Rate [m3/s], 3.85599
 Component Sizing Information, AirTerminal:SingleDuct:VAV:Reheat, BUILDING STORY 4 THERMALZONE VAV TERMINAL, Design Size Constant Minimum Air Flow Fraction, 0.58013
 Component Sizing Information, AirTerminal:SingleDuct:VAV:Reheat, BUILDING STORY 4 THERMALZONE VAV TERMINAL, User-Specified Constant Minimum Air Flow Fraction, 0.30000
 Component Sizing Information, AirTerminal:SingleDuct:VAV:Reheat, BUILDING STORY 4 THERMALZONE VAV TERMINAL, Design Size Minimum Air Flow Rate [m3/s], 1.15680
 Component Sizing Information, AirTerminal:SingleDuct:VAV:Reheat, BUILDING STORY 4 THERMALZONE VAV TERMINAL, Design Size Maximum Flow per Zone Floor Area during Reheat [m3/s-m2], 3.94047E-004
 Component Sizing Information, AirTerminal:SingleDuct:VAV:Reheat, BUILDING STORY 4 THERMALZONE VAV TERMINAL, Design Size Maximum Flow Fraction during Reheat [], 0.30000
 Component Sizing Information, AirTerminal:SingleDuct:VAV:Reheat, BUILDING STORY 4 THERMALZONE VAV TERMINAL, Design Size Maximum Reheat Water Flow Rate [m3/s], 1.81246E-003
 Component Sizing Information, AirTerminal:SingleDuct:VAV:Reheat, BUILDING STORY 4 THERMALZONE VAV TERMINAL, Design Size Reheat Coil Sizing Air Volume Flow Rate [m3/s], 2.54448
 Component Sizing Information, AirTerminal:SingleDuct:VAV:Reheat, BUILDING STORY 4 THERMALZONE VAV TERMINAL, Design Size Reheat Coil Sizing Inlet Air Temperature [C], 12.77778
 Component Sizing Information, AirTerminal:SingleDuct:VAV:Reheat, BUILDING STORY 4 THERMALZONE VAV TERMINAL, Design Size Reheat Coil Sizing Inlet Air Humidity Ratio [kgWater/kgDryAir], 8.00000E-003
 Component Sizing Information, Coil:Heating:Water, BUILDING STORY 4 THERMALZONE REHEAT COIL, Design Size Rated Capacity [W], 82863.66884
 Component Sizing Information, Coil:Heating:Water, BUILDING STORY 4 THERMALZONE REHEAT COIL, Design Size Maximum Water Flow Rate [m3/s], 1.81246E-003
 Component Sizing Information, Coil:Heating:Water, BUILDING STORY 4 THERMALZONE REHEAT COIL, Design Size U-Factor Times Area Value [W/K], 1720.33383
Water Heating Coil Capacity Information,Coil:Heating:Water,BUILDING STORY 4 THERMALZONE REHEAT COIL,61031.90
 Component Sizing Information, ZoneHVAC:PackagedTerminalAirConditioner, BUILDING STORY 5 THERMALZONE PTAC, Design Size Cooling Supply Air Flow Rate [m3/s], 8.46474
 Component Sizing Information, ZoneHVAC:PackagedTerminalAirConditioner, BUILDING STORY 5 THERMALZONE PTAC, Design Size Heating Supply Air Flow Rate [m3/s], 8.46474
 Component Sizing Information, ZoneHVAC:PackagedTerminalAirConditioner, BUILDING STORY 5 THERMALZONE PTAC, Design Size No Load Supply Air Flow Rate [m3/s], 8.46474
 Component Sizing Information, ZoneHVAC:PackagedTerminalAirConditioner, BUILDING STORY 5 THERMALZONE PTAC, Design Size Outdoor Air Flow Rate During Cooling Operation [m3/s], 0.79861
 Component Sizing Information, ZoneHVAC:PackagedTerminalAirConditioner, BUILDING STORY 5 THERMALZONE PTAC, Design Size Outdoor Air Flow Rate During Heating Operation [m3/s], 0.79861
 Component Sizing Information, ZoneHVAC:PackagedTerminalAirConditioner, BUILDING STORY 5 THERMALZONE PTAC, Design Size Outdoor Air Flow Rate When No Cooling or Heating is Needed [m3/s], 0.79861
 Component Sizing Information, Coil:Heating:Water, HOT WATER LOOP WATER HTG COIL 3, Design Size Rated Capacity [W], 329597.04234
 Component Sizing Information, Coil:Heating:Water, HOT WATER LOOP WATER HTG COIL 3, Design Size Maximum Water Flow Rate [m3/s], 7.20922E-003
 Component Sizing Information, Coil:Heating:Water, HOT WATER LOOP WATER HTG COIL 3, Design Size U-Factor Times Area Value [W/K], 8149.25762
Water Heating Coil Capacity Information,Coil:Heating:Water,HOT WATER LOOP WATER HTG COIL 3,334502.84
 Component Sizing Information, Coil:Cooling:DX:SingleSpeed, BUILDING STORY 5 THERMALZONE PTAC 1SPD DX AC CLG COIL 472KBTU/HR 9.3EER, Design Size Rated Air Flow Rate [m3/s], 8.46474
 Component Sizing Information, Coil:Cooling:DX:SingleSpeed, BUILDING STORY 5 THERMALZONE PTAC 1SPD DX AC CLG COIL 472KBTU/HR 9.3EER, Design Size Gross Rated Total Cooling Capacity [W], 149988.93818
 Component Sizing Information, Coil:Cooling:DX:SingleSpeed, BUILDING STORY 5 THERMALZONE PTAC 1SPD DX AC CLG COIL 472KBTU/HR 9.3EER, Design Size Gross Rated Sensible Heat Ratio, 0.80047
 DX Cooling Coil Standard Rating Information, Coil:Cooling:DX:SingleSpeed, BUILDING STORY 5 THERMALZONE PTAC 1SPD DX AC CLG COIL 472KBTU/HR 9.3EER, 143419.1, 2.71, 9.25, 9.81, 9.28
 Component Sizing Information, Fan:ConstantVolume, BUILDING STORY 5 THERMALZONE PTAC FAN, Design Size Maximum Flow Rate [m3/s], 8.46474
 Component Sizing Information, ZoneHVAC:PackagedTerminalAirConditioner, BUILDING STORY 6 THERMALZONE PTAC, Design Size Cooling Supply Air Flow Rate [m3/s], 8.31432
 Component Sizing Information, ZoneHVAC:PackagedTerminalAirConditioner, BUILDING STORY 6 THERMALZONE PTAC, Design Size Heating Supply Air Flow Rate [m3/s], 8.31432
 Component Sizing Information, ZoneHVAC:PackagedTerminalAirConditioner, BUILDING STORY 6 THERMALZONE PTAC, Design Size No Load Supply Air Flow Rate [m3/s], 8.31432
 Component Sizing Information, ZoneHVAC:PackagedTerminalAirConditioner, BUILDING STORY 6 THERMALZONE PTAC, Design Size Outdoor Air Flow Rate During Cooling Operation [m3/s], 0.79675
 Component Sizing Information, ZoneHVAC:PackagedTerminalAirConditioner, BUILDING STORY 6 THERMALZONE PTAC, Design Size Outdoor Air Flow Rate During Heating Operation [m3/s], 0.79675
 Component Sizing Information, ZoneHVAC:PackagedTerminalAirConditioner, BUILDING STORY 6 THERMALZONE PTAC, Design Size Outdoor Air Flow Rate When No Cooling or Heating is Needed [m3/s], 0.79675
 Component Sizing Information, Coil:Heating:Water, HOT WATER LOOP WATER HTG COIL 4, Design Size Rated Capacity [W], 324295.01276
 Component Sizing Information, Coil:Heating:Water, HOT WATER LOOP WATER HTG COIL 4, Design Size Maximum Water Flow Rate [m3/s], 7.09325E-003
 Component Sizing Information, Coil:Heating:Water, HOT WATER LOOP WATER HTG COIL 4, Design Size U-Factor Times Area Value [W/K], 8013.78025
Water Heating Coil Capacity Information,Coil:Heating:Water,HOT WATER LOOP WATER HTG COIL 4,328847.06
 Component Sizing Information, Coil:Cooling:DX:SingleSpeed, BUILDING STORY 6 THERMALZONE PTAC 1SPD DX AC CLG COIL 463KBTU/HR 9.3EER, Design Size Rated Air Flow Rate [m3/s], 8.31432
 Component Sizing Information, Coil:Cooling:DX:SingleSpeed, BUILDING STORY 6 THERMALZONE PTAC 1SPD DX AC CLG COIL 463KBTU/HR 9.3EER, Design Size Gross Rated Total Cooling Capacity [W], 147896.92422
 Component Sizing Information, Coil:Cooling:DX:SingleSpeed, BUILDING STORY 6 THERMALZONE PTAC 1SPD DX AC CLG COIL 463KBTU/HR 9.3EER, Design Size Gross Rated Sensible Heat Ratio, 0.80014
 DX Cooling Coil Standard Rating Information, Coil:Cooling:DX:SingleSpeed, BUILDING STORY 6 THERMALZONE PTAC 1SPD DX AC CLG COIL 463KBTU/HR 9.3EER, 141443.7, 2.71, 9.25, 9.81, 9.29
 Component Sizing Information, Fan:ConstantVolume, BUILDING STORY 6 THERMALZONE PTAC FAN, Design Size Maximum Flow Rate [m3/s], 8.31432
 Component Sizing Information, AirTerminal:SingleDuct:VAV:Reheat, BUILDING STORY 7 THERMALZONE VAV TERMINAL, Design Size Maximum Air Flow Rate [m3/s], 18.49064
 Component Sizing Information, AirTerminal:SingleDuct:VAV:Reheat, BUILDING STORY 7 THERMALZONE VAV TERMINAL, Design Size Constant Minimum Air Flow Fraction, 0.12098
 Component Sizing Information, AirTerminal:SingleDuct:VAV:Reheat, BUILDING STORY 7 THERMALZONE VAV TERMINAL, User-Specified Constant Minimum Air Flow Fraction, 0.70000
 Component Sizing Information, AirTerminal:SingleDuct:VAV:Reheat, BUILDING STORY 7 THERMALZONE VAV TERMINAL, Design Size Minimum Air Flow Rate [m3/s], 12.94345
 Component Sizing Information, AirTerminal:SingleDuct:VAV:Reheat, BUILDING STORY 7 THERMALZONE VAV TERMINAL, Design Size Maximum Flow per Zone Floor Area during Reheat [m3/s-m2], 4.40901E-003
[...]
 Component Sizing Information, Coil:Cooling:Water, 1 ZONE VAV 1 CLG COIL, Design Size Design Inlet Air Humidity Ratio, 9.97583E-003
 Component Sizing Information, Coil:Cooling:Water, 1 ZONE VAV 1 CLG COIL, Design Size Design Outlet Air Humidity Ratio, 8.50000E-003
 Component Sizing Information, Coil:Cooling:Water, 1 ZONE VAV 1 CLG COIL, Design Size Design Coil Load [W], 84277.50493
 Component Sizing Information, Coil:Cooling:Water, 1 ZONE VAV 1 CLG COIL, Design Size Design Water Flow Rate [m3/s], 3.57826E-003
 Component Sizing Information, Coil:Cooling:Water, 1 ZONE VAV 1 CLG COIL, Design Size Design Air Flow Rate [m3/s], 3.85599
Water Cooling Coil Capacity Information,Coil:Cooling:Water,1 ZONE VAV 1 CLG COIL,111432.18,73483.77,37948.41,0.66,15596.33,158.19
 Component Sizing Information, Coil:Heating:Water, 1 ZONE VAV 1 MAIN HTG COIL, Design Size Rated Capacity [W], 21592.35068
 Component Sizing Information, Coil:Heating:Water, 1 ZONE VAV 1 MAIN HTG COIL, Design Size Maximum Water Flow Rate [m3/s], 4.72286E-004
 Component Sizing Information, Coil:Heating:Water, 1 ZONE VAV 1 MAIN HTG COIL, Design Size U-Factor Times Area Value [W/K], 312.10792
Water Heating Coil Capacity Information,Coil:Heating:Water,1 ZONE VAV 1 MAIN HTG COIL,16646.11
 Component Sizing Information, Fan:VariableVolume, 1 ZONE VAV 1 FAN, Design Size Maximum Flow Rate [m3/s], 3.85599
 Component Sizing Information, Controller:WaterCoil, 1 ZONE VAV 1 CLG COIL CONTROLLER, Maximum Actuated Flow [m3/s], 3.57826E-003
 Component Sizing Information, Controller:WaterCoil, 1 ZONE VAV 1 CLG COIL CONTROLLER, Controller Convergence Tolerance, 1.33079E-004
 Component Sizing Information, Controller:WaterCoil, 1 ZONE VAV 1 MAIN HTG COIL CONTROLLER, Maximum Actuated Flow [m3/s], 4.72286E-004
 Component Sizing Information, Controller:OutdoorAir, 1 ZONE VAV 2 OA CONTROLLER, Maximum Outdoor Air Flow Rate [m3/s], 18.49935
 Component Sizing Information, Controller:OutdoorAir, 1 ZONE VAV 2 OA CONTROLLER, Minimum Outdoor Air Flow Rate [m3/s], 13.82324
 Component Sizing Information, HeatExchanger:AirToAir:SensibleAndLatent, 1 ZONE VAV 2 ERV, Design Size Nominal Supply Air Flow Rate [m3/s], 13.82324
 Component Sizing Information, Coil:Cooling:Water, 1 ZONE VAV 2 CLG COIL, Design Size Design Inlet Air Temperature [C], 28.72678
 Component Sizing Information, Coil:Cooling:Water, 1 ZONE VAV 2 CLG COIL, Design Size Design Inlet Water Temperature [C], 6.66667
 Component Sizing Information, Coil:Cooling:Water, 1 ZONE VAV 2 CLG COIL, Design Size Design Outlet Air Temperature [C], 10.57288
 Component Sizing Information, Coil:Cooling:Water, 1 ZONE VAV 2 CLG COIL, Design Size Design Inlet Air Humidity Ratio, 1.25792E-002
 Component Sizing Information, Coil:Cooling:Water, 1 ZONE VAV 2 CLG COIL, Design Size Design Outlet Air Humidity Ratio, 8.50000E-003
 Component Sizing Information, Coil:Cooling:Water, 1 ZONE VAV 2 CLG COIL, Design Size Design Coil Load [W], 628665.89557
 Component Sizing Information, Coil:Cooling:Water, 1 ZONE VAV 2 CLG COIL, Design Size Design Water Flow Rate [m3/s], 2.66919E-002
 Component Sizing Information, Coil:Cooling:Water, 1 ZONE VAV 2 CLG COIL, Design Size Design Air Flow Rate [m3/s], 18.49935
Water Cooling Coil Capacity Information,Coil:Cooling:Water,1 ZONE VAV 2 CLG COIL,593471.32,378249.85,215221.47,0.64,76652.80,777.46
 Component Sizing Information, Coil:Heating:Water, 1 ZONE VAV 2 MAIN HTG COIL, Design Size Rated Capacity [W], 190363.76675
 Component Sizing Information, Coil:Heating:Water, 1 ZONE VAV 2 MAIN HTG COIL, Design Size Maximum Water Flow Rate [m3/s], 4.16380E-003
 Component Sizing Information, Coil:Heating:Water, 1 ZONE VAV 2 MAIN HTG COIL, Design Size U-Factor Times Area Value [W/K], 2501.07560
Water Heating Coil Capacity Information,Coil:Heating:Water,1 ZONE VAV 2 MAIN HTG COIL,127089.88
 Component Sizing Information, Fan:VariableVolume, 1 ZONE VAV 2 FAN, Design Size Maximum Flow Rate [m3/s], 18.49935
 Component Sizing Information, Controller:WaterCoil, 1 ZONE VAV 2 CLG COIL CONTROLLER, Maximum Actuated Flow [m3/s], 2.66919E-002
 Component Sizing Information, Controller:WaterCoil, 1 ZONE VAV 2 CLG COIL CONTROLLER, Controller Convergence Tolerance, 1.78402E-005
 Component Sizing Information, Controller:WaterCoil, 1 ZONE VAV 2 MAIN HTG COIL CONTROLLER, Maximum Actuated Flow [m3/s], 4.16380E-003
 Component Sizing Information, Controller:OutdoorAir, 1 ZONE VAV 3 OA CONTROLLER, Maximum Outdoor Air Flow Rate [m3/s], 14.84985
 Component Sizing Information, Controller:OutdoorAir, 1 ZONE VAV 3 OA CONTROLLER, Minimum Outdoor Air Flow Rate [m3/s], 6.30779
 Component Sizing Information, Coil:Cooling:Water, 1 ZONE VAV 3 CLG COIL, Design Size Design Inlet Air Temperature [C], 26.66137
 Component Sizing Information, Coil:Cooling:Water, 1 ZONE VAV 3 CLG COIL, Design Size Design Inlet Water Temperature [C], 6.66667
 Component Sizing Information, Coil:Cooling:Water, 1 ZONE VAV 3 CLG COIL, Design Size Design Outlet Air Temperature [C], 10.56892
 Component Sizing Information, Coil:Cooling:Water, 1 ZONE VAV 3 CLG COIL, Design Size Design Inlet Air Humidity Ratio, 1.15864E-002
 Component Sizing Information, Coil:Cooling:Water, 1 ZONE VAV 3 CLG COIL, Design Size Design Outlet Air Humidity Ratio, 8.50000E-003
 Component Sizing Information, Coil:Cooling:Water, 1 ZONE VAV 3 CLG COIL, Design Size Design Coil Load [W], 423551.88887
 Component Sizing Information, Coil:Cooling:Water, 1 ZONE VAV 3 CLG COIL, Design Size Design Water Flow Rate [m3/s], 1.79832E-002
 Component Sizing Information, Coil:Cooling:Water, 1 ZONE VAV 3 CLG COIL, Design Size Design Air Flow Rate [m3/s], 14.84985
Water Cooling Coil Capacity Information,Coil:Cooling:Water,1 ZONE VAV 3 CLG COIL,457078.77,294980.36,162098.41,0.65,59593.29,604.43
 Component Sizing Information, Coil:Heating:Water, 1 ZONE VAV 3 MAIN HTG COIL, Design Size Rated Capacity [W], 152809.36111
 Component Sizing Information, Coil:Heating:Water, 1 ZONE VAV 3 MAIN HTG COIL, Design Size Maximum Water Flow Rate [m3/s], 3.34237E-003
 Component Sizing Information, Coil:Heating:Water, 1 ZONE VAV 3 MAIN HTG COIL, Design Size U-Factor Times Area Value [W/K], 2007.67074
Water Heating Coil Capacity Information,Coil:Heating:Water,1 ZONE VAV 3 MAIN HTG COIL,102017.96
 Component Sizing Information, Fan:VariableVolume, 1 ZONE VAV 3 FAN, Design Size Maximum Flow Rate [m3/s], 14.84985
 Component Sizing Information, Controller:WaterCoil, 1 ZONE VAV 3 CLG COIL CONTROLLER, Maximum Actuated Flow [m3/s], 1.79832E-002
 Component Sizing Information, Controller:WaterCoil, 1 ZONE VAV 3 CLG COIL CONTROLLER, Controller Convergence Tolerance, 2.64797E-005
 Component Sizing Information, Controller:WaterCoil, 1 ZONE VAV 3 MAIN HTG COIL CONTROLLER, Maximum Actuated Flow [m3/s], 3.34237E-003
 Component Sizing Information, Controller:OutdoorAir, 1 ZONE VAV 4 OA CONTROLLER, Maximum Outdoor Air Flow Rate [m3/s], 31.62294
 Component Sizing Information, Controller:OutdoorAir, 1 ZONE VAV 4 OA CONTROLLER, Minimum Outdoor Air Flow Rate [m3/s], 9.41913
 Component Sizing Information, Coil:Cooling:Water, 1 ZONE VAV 4 CLG COIL, Design Size Design Inlet Air Temperature [C], 25.86327
 Component Sizing Information, Coil:Cooling:Water, 1 ZONE VAV 4 CLG COIL, Design Size Design Inlet Water Temperature [C], 6.66667
 Component Sizing Information, Coil:Cooling:Water, 1 ZONE VAV 4 CLG COIL, Design Size Design Outlet Air Temperature [C], 10.56512
 Component Sizing Information, Coil:Cooling:Water, 1 ZONE VAV 4 CLG COIL, Design Size Design Inlet Air Humidity Ratio, 1.06394E-002
 Component Sizing Information, Coil:Cooling:Water, 1 ZONE VAV 4 CLG COIL, Design Size Design Outlet Air Humidity Ratio, 8.50000E-003
 Component Sizing Information, Coil:Cooling:Water, 1 ZONE VAV 4 CLG COIL, Design Size Design Coil Load [W], 782083.52132
 Component Sizing Information, Coil:Cooling:Water, 1 ZONE VAV 4 CLG COIL, Design Size Design Water Flow Rate [m3/s], 3.32058E-002
 Component Sizing Information, Coil:Cooling:Water, 1 ZONE VAV 4 CLG COIL, Design Size Design Air Flow Rate [m3/s], 31.62294
Water Cooling Coil Capacity Information,Coil:Cooling:Water,1 ZONE VAV 4 CLG COIL,933412.23,610454.44,322957.80,0.65,122579.45,1243.27
 Component Sizing Information, Coil:Heating:Water, 1 ZONE VAV 4 MAIN HTG COIL, Design Size Rated Capacity [W], 322428.91489
 Component Sizing Information, Coil:Heating:Water, 1 ZONE VAV 4 MAIN HTG COIL, Design Size Maximum Water Flow Rate [m3/s], 7.05244E-003
 Component Sizing Information, Coil:Heating:Water, 1 ZONE VAV 4 MAIN HTG COIL, Design Size U-Factor Times Area Value [W/K], 4243.45597
Water Heating Coil Capacity Information,Coil:Heating:Water,1 ZONE VAV 4 MAIN HTG COIL,215837.80
 Component Sizing Information, Fan:VariableVolume, 1 ZONE VAV 4 FAN, Design Size Maximum Flow Rate [m3/s], 31.62294
 Component Sizing Information, Controller:WaterCoil, 1 ZONE VAV 4 CLG COIL CONTROLLER, Maximum Actuated Flow [m3/s], 3.32058E-002
 Component Sizing Information, Controller:WaterCoil, 1 ZONE VAV 4 CLG COIL CONTROLLER, Controller Convergence Tolerance, 1.43406E-005
 Component Sizing Information, Controller:WaterCoil, 1 ZONE VAV 4 MAIN HTG COIL CONTROLLER, Maximum Actuated Flow [m3/s], 7.05244E-003
Water Heater Information,WaterHeater:Mixed,6.0GAL ELECTRICITY BOOSTER WATER HEATER - 50KBTU/HR 1.0 THERM EFF,2.2712E-002,14775.4,33.444,0.9151
Water Heater Information,WaterHeater:Mixed,263GAL NATURALGAS WATER HEATER - 263KBTU/HR 0.804 THERM EFF,0.9939,76955.3,0.690,0.4642
Water Heater Information,WaterHeater:Mixed,517GAL ELECTRICITY WATER HEATER - 517KBTU/HR 1.0 THERM EFF,1.9579,151586.6,0.442,0.8894
Water Heater Information,WaterHeater:Mixed,392GAL ELECTRICITY WATER HEATER - 392KBTU/HR 1.0 THERM EFF,1.4854,115008.0,0.581,0.8755
 Component Sizing Information, Pump:VariableSpeed, CHILLED WATER LOOP SECONDARY PUMP, Design Flow Rate [m3/s], 8.50237E-002
 Component Sizing Information, Pump:VariableSpeed, CHILLED WATER LOOP SECONDARY PUMP, Design Power Consumption [W], 16112.10189
 Component Sizing Information, PlantLoop, CHILLED WATER LOOP, Maximum Loop Flow Rate [m3/s], 8.50237E-002
 Component Sizing Information, PlantLoop, CHILLED WATER LOOP, Plant Loop Volume [m3], 10.20284
 Component Sizing Information, Pump:ConstantSpeed, CHILLED WATER LOOP PRIMARY PUMP, Design Flow Rate [m3/s], 8.50237E-002
 Component Sizing Information, Pump:ConstantSpeed, CHILLED WATER LOOP PRIMARY PUMP, Design Power Consumption [W], 5460.71237
 Component Sizing Information, Chiller:Electric:EIR, 90.1-2004 WATERCOOLED  ROTARY SCREW CHILLER 0 545TONS 0.6KW/TON, Design Size Reference Chilled Water Flow Rate [m3/s], 8.50237E-002
 Component Sizing Information, Chiller:Electric:EIR, 90.1-2004 WATERCOOLED  ROTARY SCREW CHILLER 0 545TONS 0.6KW/TON, Design Size Reference Capacity [W], 2002533.56207
 Component Sizing Information, Chiller:Electric:EIR, 90.1-2004 WATERCOOLED  ROTARY SCREW CHILLER 0 545TONS 0.6KW/TON, Design Size Reference Condenser Fluid Flow Rate [m3/s], 0.10191
! <Chiller Standard Rating Information>, Component Type, Component Name, IPLV in SI Units {W/W}, IPLV in IP Units {Btu/W-h}
 Chiller Standard Rating Information, Chiller:Electric:EIR, 90.1-2004 WATERCOOLED  ROTARY SCREW CHILLER 0 545TONS 0.6KW/TON, 5.13, 17.50
 Component Sizing Information, PlantLoop, LARGEHOTEL KITCHEN - 90.1-2004 SERVICE WATER BOOSTER LOOP, Maximum Loop Flow Rate [m3/s], 2.62959E-004
 Component Sizing Information, PlantLoop, LARGEHOTEL KITCHEN - 90.1-2004 SERVICE WATER BOOSTER LOOP, Plant Loop Volume [m3], 3.15550E-002
 Component Sizing Information, Pump:VariableSpeed, BOOSTER WATER LOOP PUMP, Design Flow Rate [m3/s], 2.62959E-004
 Component Sizing Information, HeatExchanger:FluidToFluid, HX FOR BOOSTER WATER HEATING, Loop Supply Side Design Fluid Flow Rate [m3/s], 2.62959E-004
 Component Sizing Information, HeatExchanger:FluidToFluid, HX FOR BOOSTER WATER HEATING, Loop Demand Side Design Fluid Flow Rate [m3/s], 2.62959E-004
 Component Sizing Information, HeatExchanger:FluidToFluid, HX FOR BOOSTER WATER HEATING, Heat Exchanger U-Factor Times Area Value [W/C], 320.44911
 Component Sizing Information, HeatExchanger:FluidToFluid, HX FOR BOOSTER WATER HEATING, Loop-to-loop Temperature Difference Used to Size Heat Exchanger U-Factor Times Area Value [C], 17.22222
 Component Sizing Information, WaterHeater:Mixed, 6.0GAL ELECTRICITY BOOSTER WATER HEATER - 50KBTU/HR 1.0 THERM EFF, Use Side Design Flow Rate [m3/s], 2.62959E-004
 Component Sizing Information, PlantComponent:TemperatureSource, MAINS WATER MAKEUP FOR SWH BOOSTER, Design Size Design Fluid Flow Rate [m3/s], 1.49010E-003
 Component Sizing Information, PlantLoop, CONDENSER WATER LOOP, Maximum Loop Flow Rate [m3/s], 0.10191
 Component Sizing Information, PlantLoop, CONDENSER WATER LOOP, Plant Loop Volume [m3], 12.22939
 Component Sizing Information, Pump:ConstantSpeed, CONDENSER WATER LOOP CONSTANT PUMP, Design Flow Rate [m3/s], 0.10191
 Component Sizing Information, Pump:ConstantSpeed, CONDENSER WATER LOOP CONSTANT PUMP, Design Power Consumption [W], 21006.27036
 Component Sizing Information, CoolingTower:TwoSpeed, PROPELLER OR AXIAL TWOSPEED FAN OPEN COOLING TOWER 38.2 GPM/HP, Design Water Flow Rate [m3/s], 0.10191
 Component Sizing Information, CoolingTower:TwoSpeed, PROPELLER OR AXIAL TWOSPEED FAN OPEN COOLING TOWER 38.2 GPM/HP, Air Flow Rate at High Fan Speed [m3/s], 78.91708
 Component Sizing Information, CoolingTower:TwoSpeed, PROPELLER OR AXIAL TWOSPEED FAN OPEN COOLING TOWER 38.2 GPM/HP, U-Factor Times Area Value at High Fan Speed [W/C], 127347.25058
 Component Sizing Information, CoolingTower:TwoSpeed, PROPELLER OR AXIAL TWOSPEED FAN OPEN COOLING TOWER 38.2 GPM/HP, Low Fan Speed Air Flow Rate [m3/s], 39.45854
 Component Sizing Information, CoolingTower:TwoSpeed, PROPELLER OR AXIAL TWOSPEED FAN OPEN COOLING TOWER 38.2 GPM/HP, U-Factor Times Area Value at Low Fan Speed [W/K], 76408.35035
 Component Sizing Information, PlantLoop, HOT WATER LOOP, Maximum Loop Flow Rate [m3/s], 7.29791E-002
 Component Sizing Information, PlantLoop, HOT WATER LOOP, Plant Loop Volume [m3], 8.75750
 Component Sizing Information, Pump:VariableSpeed, HOT WATER LOOP PUMP, Design Flow Rate [m3/s], 7.29791E-002
 Component Sizing Information, Pump:VariableSpeed, HOT WATER LOOP PUMP, Design Power Consumption [W], 18160.13392
 Component Sizing Information, Boiler:HotWater, BOILER 11186KBTU/HR 0.75 THERMAL EFF, Design Size Nominal Capacity [W], 3336518.63577
 Component Sizing Information, Boiler:HotWater, BOILER 11186KBTU/HR 0.75 THERMAL EFF, Design Size Design Water Flow Rate [m3/s], 7.29791E-002
 Component Sizing Information, PlantLoop, LARGEHOTEL KITCHEN - 90.1-2004 SERVICE WATER LOOP, Maximum Loop Flow Rate [m3/s], 1.92836E-003
 Component Sizing Information, PlantLoop, LARGEHOTEL KITCHEN - 90.1-2004 SERVICE WATER LOOP, Plant Loop Volume [m3], 0.23140
 Component Sizing Information, Pump:VariableSpeed, LARGEHOTEL KITCHEN - 90.1-2004 SERVICE WATER LOOP WATER MAINS PRESSURE DRIVEN, Design Flow Rate [m3/s], 1.92836E-003
 Component Sizing Information, Pump:VariableSpeed, LARGEHOTEL KITCHEN - 90.1-2004 SERVICE WATER LOOP WATER MAINS PRESSURE DRIVEN, Design Power Consumption [W], 2.99668E-006
 Component Sizing Information, WaterHeater:Mixed, 263GAL NATURALGAS WATER HEATER - 263KBTU/HR 0.804 THERM EFF, Use Side Design Flow Rate [m3/s], 1.92836E-003
 Component Sizing Information, PlantLoop, LARGEHOTEL LAUNDRY - 90.1-2004 SERVICE WATER LOOP, Maximum Loop Flow Rate [m3/s], 5.17976E-004
 Component Sizing Information, PlantLoop, LARGEHOTEL LAUNDRY - 90.1-2004 SERVICE WATER LOOP, Plant Loop Volume [m3], 6.21571E-002
 Component Sizing Information, Pump:VariableSpeed, LARGEHOTEL LAUNDRY - 90.1-2004 SERVICE WATER LOOP WATER MAINS PRESSURE DRIVEN, Design Flow Rate [m3/s], 5.17976E-004
 Component Sizing Information, Pump:VariableSpeed, LARGEHOTEL LAUNDRY - 90.1-2004 SERVICE WATER LOOP WATER MAINS PRESSURE DRIVEN, Design Power Consumption [W], 8.04935E-007
 Component Sizing Information, WaterHeater:Mixed, 517GAL ELECTRICITY WATER HEATER - 517KBTU/HR 1.0 THERM EFF, Use Side Design Flow Rate [m3/s], 5.17976E-004
 Component Sizing Information, PlantLoop, LARGEHOTEL SHARED SERVICE WATER LOOP, Maximum Loop Flow Rate [m3/s], 4.91232E-004
 Component Sizing Information, PlantLoop, LARGEHOTEL SHARED SERVICE WATER LOOP, Plant Loop Volume [m3], 5.89478E-002
 Component Sizing Information, Pump:ConstantSpeed, LARGEHOTEL SHARED SERVICE WATER LOOP CIRCULATOR PUMP, Design Flow Rate [m3/s], 4.91232E-004
 Component Sizing Information, Pump:ConstantSpeed, LARGEHOTEL SHARED SERVICE WATER LOOP CIRCULATOR PUMP, Design Power Consumption [W], 22.81779
 Component Sizing Information, WaterHeater:Mixed, 392GAL ELECTRICITY WATER HEATER - 392KBTU/HR 1.0 THERM EFF, Use Side Design Flow Rate [m3/s], 4.91232E-004
! <Environment>,Environment Name,Environment Type, Start Date, End Date, Start DayOfWeek, Duration {#days}, Source:Start DayOfWeek,  Use Daylight Saving, Use Holidays, Apply Weekend Holiday Rule,  Use Rain Values, Use Snow Values
! <Environment:Special Days>, Special Day Name, Special Day Type, Source, Start Date, Duration {#days}
! <Environment:Daylight Saving>, Daylight Saving Indicator, Source, Start Date, End Date
! <Environment:WarmupDays>, NumberofWarmupDays
Environment,RUN PERIOD 1,WeatherFileRunPeriod,01/01/2018,12/31/2018,Monday,365,Use RunPeriod Specified Day,No,No,No,Yes,Yes
Environment:Daylight Saving,Yes,InputFile,03/11,11/04
Environment:WarmupDays,  9
! <Tabular Report>,Style,Unit Conversion
Tabular Report,HTML,None
! <Warmup Convergence Information>,Zone Name,Environment Type/Name,Average Warmup Temperature Difference {deltaC},Std Dev Warmup Temperature Difference {deltaC},Max Temperature Pass/Fail Convergence,Min Temperature Pass/Fail Convergence,Average Warmup Load Difference {W},Std Dev Warmup Load Difference {W},Heating Load Pass/Fail Convergence,Cooling Load Pass/Fail Convergence
 Warmup Convergence Information,BUILDING STORY 1 THERMALZONE,RunPeriod: RUN PERIOD 1,3.1556080211E-002,6.9305259040E-002,Pass,Pass,1.8505973186,3.9973860588,Pass,Pass
 Warmup Convergence Information,BUILDING STORY 10 THERMALZONE,RunPeriod: RUN PERIOD 1,5.5461960651E-004,4.3191576279E-004,Pass,Pass,0.3602554452,0.3757166021,Pass,Pass
 Warmup Convergence Information,BUILDING STORY 2 THERMALZONE,RunPeriod: RUN PERIOD 1,0.1827553637,0.1545277800,Pass,Pass,0.3617986583,0.3722628663,Pass,Pass
 Warmup Convergence Information,BUILDING STORY 3 THERMALZONE,RunPeriod: RUN PERIOD 1,1.0702705878E-003,9.8120645121E-004,Pass,Pass,0.1860248333,0.1293001581,Pass,Pass
 Warmup Convergence Information,BUILDING STORY 4 THERMALZONE,RunPeriod: RUN PERIOD 1,1.2954132072E-003,8.6640316617E-004,Pass,Pass,0.1934228260,0.1364809383,Pass,Pass
 Warmup Convergence Information,BUILDING STORY 5 THERMALZONE,RunPeriod: RUN PERIOD 1,0.2181829163,0.1771124626,Pass,Pass,0.7375169649,1.0942025037,Pass,Pass
 Warmup Convergence Information,BUILDING STORY 6 THERMALZONE,RunPeriod: RUN PERIOD 1,0.1895372074,0.1685223484,Pass,Pass,1.4384597725,2.5118408825,Pass,Pass
 Warmup Convergence Information,BUILDING STORY 7 THERMALZONE,RunPeriod: RUN PERIOD 1,0.2357663754,0.4937440171,Pass,Pass,0.1635026211,0.1381976430,Pass,Pass
 Warmup Convergence Information,BUILDING STORY 8 THERMALZONE,RunPeriod: RUN PERIOD 1,4.7750278245E-003,3.5328095631E-003,Pass,Pass,1.4477672685,2.2852399504,Pass,Pass
 Warmup Convergence Information,BUILDING STORY 9 THERMALZONE,RunPeriod: RUN PERIOD 1,9.2567888314E-002,0.1440492335,Pass,Pass,0.1072143843,0.1016716266,Pass,Pass
! <Program Control Information:Threads/Parallel Sims>, Threading Supported,Maximum Number of Threads, Env Set Threads (OMP_NUM_THREADS), EP Env Set Threads (EP_OMP_NUM_THREADS), IDF Set Threads, Number of Threads Used (Interior Radiant Exchange), Number Nominal Surfaces, Number Parallel Sims
Program Control:Threads/Parallel Sims, No,1, N/A, N/A, N/A, N/A, N/A, N/A
End of Data
