{
   "completed_at" : "20191231T201510Z",
   "completed_status" : "Success",
   "current_step" : 11,
   "description" : "Hotel 1",
   "eplusout_err" : "Program Version,EnergyPlus, Version 9.1.0-08d2e308bb, YMD=2019.12.31 13:10,\n   ** Warning ** Timestep: Requested number (1) is less than the suggested minimum of 4.\n   **   ~~~   ** Please see entry for Timestep in Input/Output Reference for discussion of considerations.\n   ************* Beginning Zone Sizing Calculations\n   ** Warning ** ProcessScheduleInput: Schedule:Day:Interval=\"114 SPACE(S) OCC SCH DEFAULT\", Blank Schedule Type Limits Name input -- will not be validated.\n   ** Warning ** ProcessScheduleInput: Schedule:Day:Interval=\"114 SPACE(S) OCC SCH SATURDAY\", Blank Schedule Type Limits Name input -- will not be validated.\n   ** Warning ** ProcessScheduleInput: Schedule:Day:Interval=\"114 SPACE(S) OCC SCH SUMMER DESIGN DAY\", Blank Schedule Type Limits Name input -- will not be validated.\n   ** Warning ** ProcessScheduleInput: Schedule:Day:Interval=\"114 SPACE(S) OCC SCH SUNDAY\", Blank Schedule Type Limits Name input -- will not be validated.\n   ** Warning ** ProcessScheduleInput: Schedule:Day:Interval=\"114 SPACE(S) OCC SCH WINTER DESIGN DAY\", Blank Schedule Type Limits Name input -- will not be validated.\n   ** Warning ** ProcessScheduleInput: Schedule:Day:Interval=\"ECONOMIZER MAX OA FRACTION 70 PCT DEFAULT\", Blank Schedule Type Limits Name input -- will not be validated.\n   ** Warning ** ProcessScheduleInput: Schedule:Day:Interval=\"SCHEDULE DAY 1\", Blank Schedule Type Limits Name input -- will not be validated.\n   ** Warning ** ProcessScheduleInput: Schedule:Day:Interval=\"SCHEDULE DAY 10\", Blank Schedule Type Limits Name input -- will not be validated.\n   ** Warning ** ProcessScheduleInput: Schedule:Day:Interval=\"SCHEDULE DAY 2\", Blank Schedule Type Limits Name input -- will not be validated.\n   ** Warning ** ProcessScheduleInput: Schedule:Day:Interval=\"SCHEDULE DAY 3\", Blank Schedule Type Limits Name input -- will not be validated.\n   ** Warning ** ProcessScheduleInput: Schedule:Day:Interval=\"SCHEDULE DAY 4\", Blank Schedule Type Limits Name input -- will not be validated.\n   ** Warning ** ProcessScheduleInput: Schedule:Day:Interval=\"SCHEDULE DAY 5\", Blank Schedule Type Limits Name input -- will not be validated.\n   ** Warning ** ProcessScheduleInput: Schedule:Day:Interval=\"SCHEDULE DAY 6\", Blank Schedule Type Limits Name input -- will not be validated.\n   ** Warning ** ProcessScheduleInput: Schedule:Day:Interval=\"SCHEDULE DAY 7\", Blank Schedule Type Limits Name input -- will not be validated.\n   ** Warning ** ProcessScheduleInput: Schedule:Day:Interval=\"SCHEDULE DAY 8\", Blank Schedule Type Limits Name input -- will not be validated.\n   ** Warning ** ProcessScheduleInput: Schedule:Day:Interval=\"SCHEDULE DAY 9\", Blank Schedule Type Limits Name input -- will not be validated.\n   ** Warning ** ProcessScheduleInput: Schedule:Year=\"ECONOMIZER MAX OA FRACTION 70 PCT\", Blank Schedule Type Limits Name input -- will not be validated.\n   ** Warning ** ProcessScheduleInput: Schedule:Year=\"ELEVATOR SCHEDULE\", Blank Schedule Type Limits Name input -- will not be validated.\n   ** Warning ** ProcessScheduleInput: Schedule:Constant=\"ALWAYS OFF DISCRETE\", Blank Schedule Type Limits Name input -- will not be validated.\n   ** Warning ** ProcessScheduleInput: Schedule:Constant=\"ALWAYS ON CONTINUOUS\", Blank Schedule Type Limits Name input -- will not be validated.\n   ** Warning ** CheckUsedConstructions: There are 9 nominally unused constructions in input.\n   **   ~~~   ** For explicit details on each unused construction, use Output:Diagnostics,DisplayExtraWarnings;\n   ************* Beginning System Sizing Calculations\n   ** Severe  ** InitFans: Fan=[Fan:ZoneExhaust,ZONE LARGEHOTEL KITCHEN A  - STORY GROUND EXHAUST FAN] is not on any ZoneHVAC:EquipmentList.  It will not be simulated.\n   ** Severe  ** InitFans: Fan=[Fan:ZoneExhaust,ZONE LARGEHOTEL KITCHEN B  - STORY GROUND EXHAUST FAN] is not on any ZoneHVAC:EquipmentList.  It will not be simulated.\n   ** Severe  ** InitFans: Fan=[Fan:ZoneExhaust,ZONE LARGEHOTEL KITCHEN C  - STORY GROUND EXHAUST FAN] is not on any ZoneHVAC:EquipmentList.  It will not be simulated.\n   ** Warning ** Since Zone Minimum Air Flow Input Method = CONSTANT, input for Fixed Minimum Air Flow Rate will be ignored.\n   **   ~~~   ** Occurs in AirTerminal:SingleDuct:VAV:Reheat = BUILDING STORY 3 THERMALZONE VAV TERMINAL\n   ** Warning ** Since Damper Heating Action = NORMAL, input for Maximum Flow Fraction During Reheat will be ignored.\n   **   ~~~   ** Occurs in AirTerminal:SingleDuct:VAV:Reheat = BUILDING STORY 3 THERMALZONE VAV TERMINAL\n   ** Warning ** Since Zone Minimum Air Flow Input Method = CONSTANT, input for Fixed Minimum Air Flow Rate will be ignored.\n   **   ~~~   ** Occurs in AirTerminal:SingleDuct:VAV:Reheat = BUILDING STORY 4 THERMALZONE VAV TERMINAL\n   ** Warning ** Since Damper Heating Action = NORMAL, input for Maximum Flow Fraction During Reheat will be ignored.\n   **   ~~~   ** Occurs in AirTerminal:SingleDuct:VAV:Reheat = BUILDING STORY 4 THERMALZONE VAV TERMINAL\n   ** Warning ** Since Zone Minimum Air Flow Input Method = CONSTANT, input for Fixed Minimum Air Flow Rate will be ignored.\n   **   ~~~   ** Occurs in AirTerminal:SingleDuct:VAV:Reheat = BUILDING STORY 7 THERMALZONE VAV TERMINAL\n   ** Warning ** Since Damper Heating Action = NORMAL, input for Maximum Flow Fraction During Reheat will be ignored.\n   **   ~~~   ** Occurs in AirTerminal:SingleDuct:VAV:Reheat = BUILDING STORY 7 THERMALZONE VAV TERMINAL\n   ** Warning ** Since Zone Minimum Air Flow Input Method = CONSTANT, input for Fixed Minimum Air Flow Rate will be ignored.\n   **   ~~~   ** Occurs in AirTerminal:SingleDuct:VAV:Reheat = BUILDING STORY 8 THERMALZONE VAV TERMINAL\n   ** Warning ** Since Damper Heating Action = NORMAL, input for Maximum Flow Fraction During Reheat will be ignored.\n   **   ~~~   ** Occurs in AirTerminal:SingleDuct:VAV:Reheat = BUILDING STORY 8 THERMALZONE VAV TERMINAL\n   ** Warning ** Since Zone Minimum Air Flow Input Method = CONSTANT, input for Fixed Minimum Air Flow Rate will be ignored.\n   **   ~~~   ** Occurs in AirTerminal:SingleDuct:VAV:Reheat = BUILDING STORY 9 THERMALZONE VAV TERMINAL\n   ** Warning ** Since Damper Heating Action = NORMAL, input for Maximum Flow Fraction During Reheat will be ignored.\n   **   ~~~   ** Occurs in AirTerminal:SingleDuct:VAV:Reheat = BUILDING STORY 9 THERMALZONE VAV TERMINAL\n   ************* Beginning Plant Sizing Calculations\n   ** Warning ** The Standard Ratings is calculated for Coil:Cooling:DX:SingleSpeed = BUILDING STORY 1 THERMALZONE PTAC 1SPD DX AC CLG COIL 254KBTU/HR 9.3EER but not at the AHRI test condition due to curve out of bound.\n   **   ~~~   **  Review the Standard Ratings calculations in the Engineering Reference for this coil type. Also, use Output:Diagnostics, DisplayExtraWarnings for further guidance.\n   ** Warning ** The Standard Ratings is calculated for Coil:Cooling:DX:SingleSpeed = BUILDING STORY 10 THERMALZONE PTAC 1SPD DX AC CLG COIL 716KBTU/HR 9.3EER but not at the AHRI test condition due to curve out of bound.\n   **   ~~~   **  Review the Standard Ratings calculations in the Engineering Reference for this coil type. Also, use Output:Diagnostics, DisplayExtraWarnings for further guidance.\n   ** Warning ** The Standard Ratings is calculated for Coil:Cooling:DX:SingleSpeed = BUILDING STORY 2 THERMALZONE PTAC 1SPD DX AC CLG COIL 484KBTU/HR 9.3EER but not at the AHRI test condition due to curve out of bound.\n   **   ~~~   **  Review the Standard Ratings calculations in the Engineering Reference for this coil type. Also, use Output:Diagnostics, DisplayExtraWarnings for further guidance.\n   ** Warning ** The Standard Ratings is calculated for Coil:Cooling:DX:SingleSpeed = BUILDING STORY 5 THERMALZONE PTAC 1SPD DX AC CLG COIL 472KBTU/HR 9.3EER but not at the AHRI test condition due to curve out of bound.\n   **   ~~~   **  Review the Standard Ratings calculations in the Engineering Reference for this coil type. Also, use Output:Diagnostics, DisplayExtraWarnings for further guidance.\n   ** Warning ** The Standard Ratings is calculated for Coil:Cooling:DX:SingleSpeed = BUILDING STORY 6 THERMALZONE PTAC 1SPD DX AC CLG COIL 463KBTU/HR 9.3EER but not at the AHRI test condition due to curve out of bound.\n   **   ~~~   **  Review the Standard Ratings calculations in the Engineering Reference for this coil type. Also, use Output:Diagnostics, DisplayExtraWarnings for further guidance.\n   ** Warning ** In calculating the design coil UA for Coil:Cooling:Water 1 ZONE VAV CLG COIL\n   **   ~~~   ** the coil bypass factor is unrealistically large;\n   **   ~~~   ** The initial design conditions are: Tair,in = 25.1200\n   **   ~~~   **                                    Wair,in = 9.938529E-003\n   **   ~~~   **                                    Twater,in = 6.6667\n   **   ~~~   **                                    Tair,out = 10.5623\n   **   ~~~   **                                    Wair,out = 8.500000E-003\n   ** Warning ** In calculating the design coil UA for Coil:Cooling:Water 1 ZONE VAV 1 CLG COIL\n   **   ~~~   ** the coil bypass factor is unrealistically large;\n   **   ~~~   ** The initial design conditions are: Tair,in = 25.1202\n   **   ~~~   **                                    Wair,in = 9.975829E-003\n   **   ~~~   **                                    Twater,in = 6.6667\n   **   ~~~   **                                    Tair,out = 10.5625\n   **   ~~~   **                                    Wair,out = 8.500000E-003\n   ** Warning ** In calculating the design coil UA for Coil:Cooling:Water 1 ZONE VAV 2 CLG COIL\n   **   ~~~   ** the coil bypass factor is unrealistically large;\n   **   ~~~   ** The initial design conditions are: Tair,in = 28.7268\n   **   ~~~   **                                    Wair,in = 1.257921E-002\n   **   ~~~   **                                    Twater,in = 6.6667\n   **   ~~~   **                                    Tair,out = 10.5729\n   **   ~~~   **                                    Wair,out = 8.500000E-003\n   ** Warning ** In calculating the design coil UA for Coil:Cooling:Water 1 ZONE VAV 3 CLG COIL\n   **   ~~~   ** the coil bypass factor is unrealistically large;\n   **   ~~~   ** The initial design conditions are: Tair,in = 26.6614\n   **   ~~~   **                                    Wair,in = 1.158641E-002\n   **   ~~~   **                                    Twater,in = 6.6667\n   **   ~~~   **                                    Tair,out = 10.5689\n   **   ~~~   **                                    Wair,out = 8.500000E-003\n   ** Warning ** In calculating the design coil UA for Coil:Cooling:Water 1 ZONE VAV 4 CLG COIL\n   **   ~~~   ** the coil bypass factor is unrealistically large;\n   **   ~~~   ** The initial design conditions are: Tair,in = 25.8633\n   **   ~~~   **                                    Wair,in = 1.063943E-002\n   **   ~~~   **                                    Twater,in = 6.6667\n   **   ~~~   **                                    Tair,out = 10.5651\n   **   ~~~   **                                    Wair,out = 8.500000E-003\n   ** Warning ** GetElectricEIRChillerInput: Chiller:Electric:EIR=\"90.1-2004 WATERCOOLED  ROTARY SCREW CHILLER 0 545TONS 0.6KW/TON\"\n   **   ~~~   ** Energy input ratio as a function of temperature curve output is not equal to 1.0 (+ or - 10%) at reference conditions.\n   **   ~~~   ** Curve output at reference conditions = 1.205\n   ** Warning ** Check input. Pump nominal power or motor efficiency is set to 0, for pump=BOOSTER WATER LOOP PUMP\n   ** Warning ** Missing temperature setpoint for LeavingSetpointModulated mode Boiler named BOILER 11186KBTU/HR 0.75 THERMAL EFF\n   **   ~~~   **   A temperature setpoint is needed at the outlet node of a boiler in variable flow mode\n   **   ~~~   **   use a Setpoint Manager to establish a setpoint at the boiler outlet node \n   **   ~~~   **   or use an EMS actuator to establish a setpoint at the boiler outlet node \n   **   ~~~   **   The overall loop setpoint will be assumed for Boiler. The simulation continues ... \n   ** Warning ** Output:Meter: invalid Key Name=\"HEATING:ADDITIONALFUEL\" - not found.\n   ** Warning ** Output:Meter: invalid Key Name=\"HEATING:DISTRICTCOOLING\" - not found.\n   ** Warning ** Output:Meter: invalid Key Name=\"HEATING:DISTRICTHEATING\" - not found.\n   ** Warning ** Output:Meter: invalid Key Name=\"HEATING:WATER\" - not found.\n   ** Warning ** Output:Meter: invalid Key Name=\"COOLING:GAS\" - not found.\n   ** Warning ** Output:Meter: invalid Key Name=\"COOLING:ADDITIONALFUEL\" - not found.\n   ** Warning ** Output:Meter: invalid Key Name=\"COOLING:DISTRICTCOOLING\" - not found.\n   ** Warning ** Output:Meter: invalid Key Name=\"COOLING:DISTRICTHEATING\" - not found.\n   ** Warning ** Output:Meter: invalid Key Name=\"COOLING:WATER\" - not found.\n   ** Warning ** Output:Meter: invalid Key Name=\"INTERIORLIGHTS:GAS\" - not found.\n   ** Warning ** Output:Meter: invalid Key Name=\"INTERIORLIGHTS:ADDITIONALFUEL\" - not found.\n   ** Warning ** Output:Meter: invalid Key Name=\"INTERIORLIGHTS:DISTRICTCOOLING\" - not found.\n   ** Warning ** Output:Meter: invalid Key Name=\"INTERIORLIGHTS:DISTRICTHEATING\" - not found.\n   ** Warning ** Output:Meter: invalid Key Name=\"INTERIORLIGHTS:WATER\" - not found.\n   ** Warning ** Output:Meter: invalid Key Name=\"EXTERIORLIGHTS:GAS\" - not found.\n   ** Warning ** Output:Meter: invalid Key Name=\"EXTERIORLIGHTS:ADDITIONALFUEL\" - not found.\n   ** Warning ** Output:Meter: invalid Key Name=\"EXTERIORLIGHTS:DISTRICTCOOLING\" - not found.\n   ** Warning ** Output:Meter: invalid Key Name=\"EXTERIORLIGHTS:DISTRICTHEATING\" - not found.\n   ** Warning ** Output:Meter: invalid Key Name=\"EXTERIORLIGHTS:WATER\" - not found.\n   ** Warning ** Output:Meter: invalid Key Name=\"INTERIOREQUIPMENT:ADDITIONALFUEL\" - not found.\n   ** Warning ** Output:Meter: invalid Key Name=\"INTERIOREQUIPMENT:DISTRICTCOOLING\" - not found.\n   ** Warning ** Output:Meter: invalid Key Name=\"INTERIOREQUIPMENT:DISTRICTHEATING\" - not found.\n   ** Warning ** Output:Meter: invalid Key Name=\"INTERIOREQUIPMENT:WATER\" - not found.\n   ** Warning ** Output:Meter: invalid Key Name=\"EXTERIOREQUIPMENT:ELECTRICITY\" - not found.\n   ** Warning ** Output:Meter: invalid Key Name=\"EXTERIOREQUIPMENT:GAS\" - not found.\n   ** Warning ** Output:Meter: invalid Key Name=\"EXTERIOREQUIPMENT:ADDITIONALFUEL\" - not found.\n   ** Warning ** Output:Meter: invalid Key Name=\"EXTERIOREQUIPMENT:DISTRICTCOOLING\" - not found.\n   ** Warning ** Output:Meter: invalid Key Name=\"EXTERIOREQUIPMENT:DISTRICTHEATING\" - not found.\n   ** Warning ** Output:Meter: invalid Key Name=\"EXTERIOREQUIPMENT:WATER\" - not found.\n   ** Warning ** Output:Meter: invalid Key Name=\"FANS:GAS\" - not found.\n   ** Warning ** Output:Meter: invalid Key Name=\"FANS:ADDITIONALFUEL\" - not found.\n   ** Warning ** Output:Meter: invalid Key Name=\"FANS:DISTRICTCOOLING\" - not found.\n   ** Warning ** Output:Meter: invalid Key Name=\"FANS:DISTRICTHEATING\" - not found.\n   ** Warning ** Output:Meter: invalid Key Name=\"FANS:WATER\" - not found.\n   ** Warning ** Output:Meter: invalid Key Name=\"PUMPS:GAS\" - not found.\n   ** Warning ** Output:Meter: invalid Key Name=\"PUMPS:ADDITIONALFUEL\" - not found.\n   ** Warning ** Output:Meter: invalid Key Name=\"PUMPS:DISTRICTCOOLING\" - not found.\n   ** Warning ** Output:Meter: invalid Key Name=\"PUMPS:DISTRICTHEATING\" - not found.\n   ** Warning ** Output:Meter: invalid Key Name=\"PUMPS:WATER\" - not found.\n   ** Warning ** Output:Meter: invalid Key Name=\"HEATREJECTION:GAS\" - not found.\n   ** Warning ** Output:Meter: invalid Key Name=\"HEATREJECTION:ADDITIONALFUEL\" - not found.\n   ** Warning ** Output:Meter: invalid Key Name=\"HEATREJECTION:DISTRICTCOOLING\" - not found.\n   ** Warning ** Output:Meter: invalid Key Name=\"HEATREJECTION:DISTRICTHEATING\" - not found.\n   ** Warning ** Output:Meter: invalid Key Name=\"HUMIDIFIER:ELECTRICITY\" - not found.\n   ** Warning ** Output:Meter: invalid Key Name=\"HUMIDIFIER:GAS\" - not found.\n   ** Warning ** Output:Meter: invalid Key Name=\"HUMIDIFIER:ADDITIONALFUEL\" - not found.\n   ** Warning ** Output:Meter: invalid Key Name=\"HUMIDIFIER:DISTRICTCOOLING\" - not found.\n   ** Warning ** Output:Meter: invalid Key Name=\"HUMIDIFIER:DISTRICTHEATING\" - not found.\n   ** Warning ** Output:Meter: invalid Key Name=\"HUMIDIFIER:WATER\" - not found.\n   ** Warning ** Output:Meter: invalid Key Name=\"HEATRECOVERY:GAS\" - not found.\n   ** Warning ** Output:Meter: invalid Key Name=\"HEATRECOVERY:ADDITIONALFUEL\" - not found.\n   ** Warning ** Output:Meter: invalid Key Name=\"HEATRECOVERY:DISTRICTCOOLING\" - not found.\n   ** Warning ** Output:Meter: invalid Key Name=\"HEATRECOVERY:DISTRICTHEATING\" - not found.\n   ** Warning ** Output:Meter: invalid Key Name=\"HEATRECOVERY:WATER\" - not found.\n   ** Warning ** Output:Meter: invalid Key Name=\"WATERSYSTEMS:ADDITIONALFUEL\" - not found.\n   ** Warning ** Output:Meter: invalid Key Name=\"WATERSYSTEMS:DISTRICTCOOLING\" - not found.\n   ** Warning ** Output:Meter: invalid Key Name=\"WATERSYSTEMS:DISTRICTHEATING\" - not found.\n   ** Warning ** Output:Meter: invalid Key Name=\"REFRIGERATION:ELECTRICITY\" - not found.\n   ** Warning ** Output:Meter: invalid Key Name=\"REFRIGERATION:GAS\" - not found.\n   ** Warning ** Output:Meter: invalid Key Name=\"REFRIGERATION:ADDITIONALFUEL\" - not found.\n   ** Warning ** Output:Meter: invalid Key Name=\"REFRIGERATION:DISTRICTCOOLING\" - not found.\n   ** Warning ** Output:Meter: invalid Key Name=\"REFRIGERATION:DISTRICTHEATING\" - not found.\n   ** Warning ** Output:Meter: invalid Key Name=\"REFRIGERATION:WATER\" - not found.\n   ** Warning ** Output:Meter: invalid Key Name=\"GENERATORS:ELECTRICITY\" - not found.\n   ** Warning ** Output:Meter: invalid Key Name=\"GENERATORS:GAS\" - not found.\n   ** Warning ** Output:Meter: invalid Key Name=\"GENERATORS:ADDITIONALFUEL\" - not found.\n   ** Warning ** Output:Meter: invalid Key Name=\"GENERATORS:DISTRICTCOOLING\" - not found.\n   ** Warning ** Output:Meter: invalid Key Name=\"GENERATORS:DISTRICTHEATING\" - not found.\n   ** Warning ** Output:Meter: invalid Key Name=\"GENERATORS:WATER\" - not found.\n   ** Warning ** Output:Meter: invalid Key Name=\"ADDITIONALFUEL:FACILITY\" - not found.\n   ** Warning ** Output:Meter: invalid Key Name=\"DISTRICTCOOLING:FACILITY\" - not found.\n   ** Warning ** Output:Meter: invalid Key Name=\"DISTRICTHEATING:FACILITY\" - not found.\n   ** Warning ** Output:Meter: invalid Key Name=\"DISTRICTCOOLING:FACILITY\" - not found.\n   ** Warning ** Output:Meter: invalid Key Name=\"DISTRICTHEATING:FACILITY\" - not found.\n   ** Warning ** Output:Meter:MeterFileOnly requested for \"Electricity:Facility\" (Hourly), already on \"Output:Meter\". Will report to both eplusout.eso and eplusout.mtr\n   ** Warning ** Output:Meter:MeterFileOnly: invalid Key Name=\"ELECTRICITYPRODUCED:FACILITY\" - not found.\n   ** Warning ** Output:Meter:MeterFileOnly requested for \"Gas:Facility\" (Hourly), already on \"Output:Meter\". Will report to both eplusout.eso and eplusout.mtr\n   ** Warning ** Output:Meter:MeterFileOnly: invalid Key Name=\"DISTRICTCOOLING:FACILITY\" - not found.\n   ** Warning ** Output:Meter:MeterFileOnly: invalid Key Name=\"DISTRICTHEATING:FACILITY\" - not found.\n   ** Warning ** Output:Meter:MeterFileOnly requested for \"Electricity:Facility\" (TimeStep), already on \"Output:Meter\". Will report to both eplusout.eso and eplusout.mtr\n   ************* Testing Individual Branch Integrity\n   ************* All Branches passed integrity testing\n   ************* Testing Individual Supply Air Path Integrity\n   ************* All Supply Air Paths passed integrity testing\n   ************* Testing Individual Return Air Path Integrity\n   ************* All Return Air Paths passed integrity testing\n   ** Severe  ** Node Connection Error, Node=\"ZONE LARGEHOTEL KITCHEN A  - STORY GROUND EXHAUST FAN INLET AIR NODE\", Inlet node did not find an appropriate matching \"outlet\" node.\n   **   ~~~   ** If this is an outdoor air inlet node, it must be listed in an OutdoorAir:Node or OutdoorAir:NodeList object.\n   **   ~~~   ** Reference Object=FAN:ZONEEXHAUST, Name=ZONE LARGEHOTEL KITCHEN A  - STORY GROUND EXHAUST FAN\n   ** Severe  ** Node Connection Error, Node=\"ZONE LARGEHOTEL KITCHEN B  - STORY GROUND EXHAUST FAN INLET AIR NODE\", Inlet node did not find an appropriate matching \"outlet\" node.\n   **   ~~~   ** If this is an outdoor air inlet node, it must be listed in an OutdoorAir:Node or OutdoorAir:NodeList object.\n   **   ~~~   ** Reference Object=FAN:ZONEEXHAUST, Name=ZONE LARGEHOTEL KITCHEN B  - STORY GROUND EXHAUST FAN\n   ** Severe  ** Node Connection Error, Node=\"ZONE LARGEHOTEL KITCHEN C  - STORY GROUND EXHAUST FAN INLET AIR NODE\", Inlet node did not find an appropriate matching \"outlet\" node.\n   **   ~~~   ** If this is an outdoor air inlet node, it must be listed in an OutdoorAir:Node or OutdoorAir:NodeList object.\n   **   ~~~   ** Reference Object=FAN:ZONEEXHAUST, Name=ZONE LARGEHOTEL KITCHEN C  - STORY GROUND EXHAUST FAN\n   ************* There were 3 node connection errors noted.\n   ************* Beginning Simulation\n   ** Warning ** Processing Monthly Tabular Reports: Variable names not valid for this simulation\n   **   ~~~   ** ...use Output:Diagnostics,DisplayExtraWarnings; to show more details on individual variables.\n   ** Warning ** CalcDoe2DXCoil: Coil:Cooling:DX:SingleSpeed \"BUILDING STORY 2 THERMALZONE PTAC 1SPD DX AC CLG COIL 484KBTU/HR 9.3EER\" - Air-cooled condenser inlet dry-bulb temperature below 0 C. Outdoor dry-bulb temperature = -1.10\n   **   ~~~   **  ... Occurrence info = RUN PERIOD 1, 01/01 21:00 - 21:30\n   **   ~~~   ** ... Operation at low ambient temperatures may require special performance curves.\n   ** Warning ** CalcDoe2DXCoil: Coil:Cooling:DX:SingleSpeed \"BUILDING STORY 5 THERMALZONE PTAC 1SPD DX AC CLG COIL 472KBTU/HR 9.3EER\" - Air-cooled condenser inlet dry-bulb temperature below 0 C. Outdoor dry-bulb temperature = -2.80\n   **   ~~~   **  ... Occurrence info = RUN PERIOD 1, 03/24 20:30 - 21:00\n   **   ~~~   ** ... Operation at low ambient temperatures may require special performance curves.\n   ** Warning ** CalcDoe2DXCoil: Coil:Cooling:DX:SingleSpeed \"BUILDING STORY 6 THERMALZONE PTAC 1SPD DX AC CLG COIL 463KBTU/HR 9.3EER\" - Air-cooled condenser inlet dry-bulb temperature below 0 C. Outdoor dry-bulb temperature = -2.80\n   **   ~~~   **  ... Occurrence info = RUN PERIOD 1, 04/03 06:09 - 06:14\n   **   ~~~   ** ... Operation at low ambient temperatures may require special performance curves.\n   ** Warning ** Plant Loop: LARGEHOTEL KITCHEN - 90.1-2004 SERVICE WATER LOOP Demand Side is storing excess heat the majority of the time.\n   ** Warning ** Plant Loop: LARGEHOTEL KITCHEN - 90.1-2004 SERVICE WATER LOOP Supply Side is storing excess heat the majority of the time.\n   ** Warning ** The resource referenced by LifeCycleCost:UsePriceEscalation= \"U.S. AVG  COMMERCIAL-ELECTRICITY\" has no energy cost. \n   **   ~~~   ** ... It is likely that the wrong resource is used. The resource should match the meter used in Utility:Tariff.\n   ** Warning ** The resource referenced by LifeCycleCost:UsePriceEscalation= \"U.S. AVG  COMMERCIAL-DISTILLATE OIL\" has no energy cost. \n   **   ~~~   ** ... It is likely that the wrong resource is used. The resource should match the meter used in Utility:Tariff.\n   ** Warning ** The resource referenced by LifeCycleCost:UsePriceEscalation= \"U.S. AVG  COMMERCIAL-RESIDUAL OIL\" has no energy cost. \n   **   ~~~   ** ... It is likely that the wrong resource is used. The resource should match the meter used in Utility:Tariff.\n   ** Warning ** The resource referenced by LifeCycleCost:UsePriceEscalation= \"U.S. AVG  COMMERCIAL-NATURAL GAS\" has no energy cost. \n   **   ~~~   ** ... It is likely that the wrong resource is used. The resource should match the meter used in Utility:Tariff.\n   ** Warning ** The resource referenced by LifeCycleCost:UsePriceEscalation= \"U.S. AVG  COMMERCIAL-COAL\" has no energy cost. \n   **   ~~~   ** ... It is likely that the wrong resource is used. The resource should match the meter used in Utility:Tariff.\n   ************* Simulation Error Summary *************\n   ** Warning ** The following Report Variables were requested but not generated -- check.rdd file\n   **   ~~~   ** Either the IDF did not contain these elements, the variable name is misspelled,\n   **   ~~~   ** or the requested variable is an advanced output which requires Output : Diagnostics, DisplayAdvancedReportVariables;\n   ************* Key=*, VarName=DISTRICT COOLING CHILLED WATER RATE, Frequency=Hourly\n   ************* Key=*, VarName=DISTRICT COOLING MASS FLOW RATE, Frequency=Hourly\n   ************* Key=*, VarName=DISTRICT COOLING INLET TEMPERATURE, Frequency=Hourly\n   ************* Key=*, VarName=DISTRICT COOLING OUTLET TEMPERATURE, Frequency=Hourly\n   ************* Key=*, VarName=DISTRICT HEATING HOT WATER RATE, Frequency=Hourly\n   ************* Key=*, VarName=DISTRICT HEATING MASS FLOW RATE, Frequency=Hourly\n   ************* Key=*, VarName=DISTRICT HEATING INLET TEMPERATURE, Frequency=Hourly\n   ************* Key=*, VarName=DISTRICT HEATING OUTLET TEMPERATURE, Frequency=Hourly\n   ************* There are 8 unused schedules in input.\n   ************* There are 9 unused week schedules in input.\n   ************* There are 25 unused day schedules in input.\n   ************* Use Output:Diagnostics,DisplayUnusedSchedules; to see them.\n   *************\n   ************* ===== Recurring Error Summary =====\n   ************* The following recurring error messages occurred.\n   *************\n   *************  ** Warning ** CalcDoe2DXCoil: Coil:Cooling:DX:SingleSpeed=\"BUILDING STORY 2 THERMALZONE PTAC 1SPD DX AC CLG COIL 484KBTU/HR 9.3EER\" - Low condenser dry-bulb temperature error continues...\n   *************  **   ~~~   **   This error occurred 112 total times;\n   *************  **   ~~~   **   during Warmup 0 times;\n   *************  **   ~~~   **   during Sizing 0 times.\n   *************  **   ~~~   **   Max=-0.6 [C]  Min=-5.6 [C]\n   *************\n   *************  ** Warning ** CalcDoe2DXCoil: Coil:Cooling:DX:SingleSpeed=\"BUILDING STORY 5 THERMALZONE PTAC 1SPD DX AC CLG COIL 472KBTU/HR 9.3EER\" - Low condenser dry-bulb temperature error continues...\n   *************  **   ~~~   **   This error occurred 42 total times;\n   *************  **   ~~~   **   during Warmup 0 times;\n   *************  **   ~~~   **   during Sizing 0 times.\n   *************  **   ~~~   **   Max=-0.6 [C]  Min=-2.8 [C]\n   *************\n   *************  ** Warning ** CalcDoe2DXCoil: Coil:Cooling:DX:SingleSpeed=\"BUILDING STORY 6 THERMALZONE PTAC 1SPD DX AC CLG COIL 463KBTU/HR 9.3EER\" - Low condenser dry-bulb temperature error continues...\n   *************  **   ~~~   **   This error occurred 28 total times;\n   *************  **   ~~~   **   during Warmup 0 times;\n   *************  **   ~~~   **   during Sizing 0 times.\n   *************  **   ~~~   **   Max=-0.6 [C]  Min=-2.8 [C]\n   *************\n   *************\n   ************* ===== Final Error Summary =====\n   ************* The following error categories occurred.  Consider correcting or noting.\n   ************* Node Connection Errors\n   ************* ..Node connection errors are often caused by spelling mistakes in a node name field.\n   ************* ..To track down the problem, search the idf file for each node name listed to see if it\n   ************* ..occurs in the expected input fields.\n   ************* Nominally Unused Constructions\n   ************* ..The nominally unused constructions warning is provided to alert you to potential conditions that can cause\n   ************* ..extra time during simulation. Each construction is calculated by the algorithm indicated in the HeatBalanceAlgorithm\n   ************* ..object. You may remove the constructions indicated (when you use the DisplayExtraWarnings option).\n   *************\n   ************* EnergyPlus Warmup Error Summary. During Warmup: 0 Warning; 0 Severe Errors.\n   ************* EnergyPlus Sizing Error Summary. During Sizing: 31 Warning; 3 Severe Errors.\n   ************* EnergyPlus Completed Successfully-- 316 Warning; 6 Severe Errors; Elapsed Time=00hr 03min 26.06sec\n",
   "file_paths" : [
      "/Users/tkwasnik/github/urbanopt-example-geojson-reopt-project/run/baseline_scenario/13/generated_files",
      "/Users/tkwasnik/github/urbanopt-example-geojson-reopt-project/mappers/../weather/",
      "/Users/tkwasnik/github/urbanopt-example-geojson-reopt-project/.bundle/install/ruby/2.2.0/gems/openstudio-common-measures-0.1.0/lib/files",
      "/Users/tkwasnik/github/urbanopt-example-geojson-reopt-project/.bundle/install/ruby/2.2.0/gems/openstudio-extension-0.1.3/lib/files",
      "/Users/tkwasnik/github/urbanopt-example-geojson-reopt-project/weather",
      "/Users/tkwasnik/github/urbanopt-example-geojson-reopt-project/.bundle/install/ruby/2.2.0/bundler/gems/urbanopt-reopt-gem-9d3a2c58ed2e/lib/files",
      "/Users/tkwasnik/github/urbanopt-example-geojson-reopt-project/.bundle/install/ruby/2.2.0/gems/openstudio-model-articulation-0.1.0/lib/files",
      "./files",
      "./weather",
      "../../files",
      "../../weather",
      "./"
   ],
   "hash" : "24F2DFF1",
   "measure_paths" : [
      "/Users/tkwasnik/github/urbanopt-example-geojson-reopt-project/.bundle/install/ruby/2.2.0/bundler/gems/urbanopt-geojson-gem-b4618102cfc8/lib/measures",
      "/Users/tkwasnik/github/urbanopt-example-geojson-reopt-project/.bundle/install/ruby/2.2.0/gems/openstudio-common-measures-0.1.0/lib/measures",
      "/Users/tkwasnik/github/urbanopt-example-geojson-reopt-project/.bundle/install/ruby/2.2.0/gems/openstudio-extension-0.1.3/lib/measures",
      "/Users/tkwasnik/github/urbanopt-example-geojson-reopt-project/.bundle/install/ruby/2.2.0/bundler/gems/urbanopt-scenario-gem-da28d381c70f/lib/measures",
      "/Users/tkwasnik/github/urbanopt-example-geojson-reopt-project/.bundle/install/ruby/2.2.0/bundler/gems/urbanopt-reopt-gem-9d3a2c58ed2e/lib/measures",
      "/Users/tkwasnik/github/urbanopt-example-geojson-reopt-project/.bundle/install/ruby/2.2.0/gems/openstudio-model-articulation-0.1.0/lib/measures"
   ],
   "name" : "Hotel 1",
   "run_directory" : "/Users/tkwasnik/github/urbanopt-example-geojson-reopt-project/run/baseline_scenario/13",
   "seed_file" : null,
   "started_at" : "20191231T200920Z",
   "steps" : [
      {
         "arguments" : {
            "begin_date" : "2018-01-01",
            "end_date" : "2018-12-31",
            "timesteps_per_hour" : 1
         },
         "measure_dir_name" : "set_run_period",
         "result" : {
            "completed_at" : "20191231T200920Z",
            "measure_class_name" : "SetRunPeriod",
            "measure_display_name" : "SetRunPeriod",
            "measure_name" : "set_run_period",
            "measure_taxonomy" : "Envelope.Form",
            "measure_type" : "ModelMeasure",
            "measure_uid" : "7a84292a-3975-4ab3-9284-6edabcbe750b",
            "measure_version_id" : "62323562-963d-4e61-8dc1-33935da3c01e",
            "measure_version_modified" : "20191029T231304Z",
            "measure_xml_checksum" : "2AF3A68E",
            "started_at" : "20191231T200920Z",
            "stderr" : "",
            "stdout" : "",
            "step_errors" : [],
            "step_files" : [],
            "step_info" : [],
            "step_result" : "Success",
            "step_values" : [
               {
                  "name" : "timesteps_per_hour",
                  "value" : 1
               },
               {
                  "name" : "begin_date",
                  "value" : "2018-01-01"
               },
               {
                  "name" : "end_date",
                  "value" : "2018-12-31"
               }
            ],
            "step_warnings" : []
         }
      },
      {
         "arguments" : {
            "climate_zone" : "6A",
            "weather_file_name" : "USA_NY_Buffalo-Greater.Buffalo.Intl.AP.725280_TMY3.epw"
         },
         "measure_dir_name" : "ChangeBuildingLocation",
         "result" : {
            "completed_at" : "20191231T200921Z",
            "measure_class_name" : "ChangeBuildingLocation",
            "measure_display_name" : "ChangeBuildingLocation",
            "measure_name" : "change_building_location",
            "measure_taxonomy" : "Whole Building.Space Types",
            "measure_type" : "ModelMeasure",
            "measure_uid" : "d4db4971-f5ba-11e3-a3ac-0800200c9a66",
            "measure_version_id" : "9938c101-08b8-4eaa-9eb4-4f6e5c8921b0",
            "measure_version_modified" : "20191029T231254Z",
            "measure_xml_checksum" : "057E8D9D",
            "started_at" : "20191231T200920Z",
            "stderr" : "",
            "stdout" : "[openstudio.model.YearDescription] <1> 'UseWeatherFile' is not yet a supported option for YearDescription\n[openstudio.model.YearDescription] <1> 'UseWeatherFile' is not yet a supported option for YearDescription\n",
            "step_errors" : [],
            "step_files" : [],
            "step_final_condition" : "The final weather file is Buffalo Niagara Intl Ap and the model has 3 design day objects.",
            "step_info" : [
               "city is Buffalo Niagara Intl Ap. State is NY",
               "mean dry bulb is 8.966666666666667",
               "Adding object Buffalo Niagara Intl Ap Ann Clg .4% Condns WB=>MDB",
               "Adding object Buffalo Niagara Intl Ap Ann Clg .4% Condns DB=>MWB",
               "Adding object Buffalo Niagara Intl Ap Ann Htg 99.6% Condns DB",
               "Setting Climate Zone to 6A"
            ],
            "step_initial_condition" : "No weather file is set. The model has 0 design day objects",
            "step_result" : "Success",
            "step_values" : [
               {
                  "name" : "weather_file_name",
                  "value" : "USA_NY_Buffalo-Greater.Buffalo.Intl.AP.725280_TMY3.epw"
               },
               {
                  "name" : "climate_zone",
                  "value" : "6A"
               },
               {
                  "name" : "set_year",
                  "value" : 0
               },
               {
                  "name" : "use_upstream_args",
                  "value" : true
               }
            ],
            "step_warnings" : [ "weather_file.path is ." ]
         }
      },
      {
         "arguments" : {
            "bar_division_method" : "Multiple Space Types - Individual Stories Sliced",
            "bldg_type_a" : "LargeHotel",
            "bldg_type_a_num_units" : 0,
            "bldg_type_b" : "SmallOffice",
            "bldg_type_b_fract_bldg_area" : 0,
            "bldg_type_b_num_units" : 0,
            "bldg_type_c" : "SmallOffice",
            "bldg_type_c_fract_bldg_area" : 0,
            "bldg_type_c_num_units" : 0,
            "bldg_type_d" : "SmallOffice",
            "bldg_type_d_fract_bldg_area" : 0,
            "bldg_type_d_num_units" : 0,
            "building_rotation" : 0,
            "floor_height" : 10,
            "ns_to_ew_ratio" : 0,
            "num_stories_above_grade" : 10,
            "num_stories_below_grade" : 0,
            "party_wall_fraction" : 0,
            "single_floor_area" : 31616,
            "story_multiplier" : "None",
            "template" : "90.1-2004",
            "wwr" : 0
         },
         "measure_dir_name" : "create_bar_from_building_type_ratios",
         "result" : {
            "completed_at" : "20191231T200953Z",
            "measure_class_name" : "CreateBarFromBuildingTypeRatios",
            "measure_display_name" : "Create Bar From Building Type Ratios",
            "measure_name" : "create_bar_from_building_type_ratios",
            "measure_taxonomy" : "Envelope.Form",
            "measure_type" : "ModelMeasure",
            "measure_uid" : "6e3a14f8-c3c7-4e03-bc51-bef8a52e1a05",
            "measure_version_id" : "c56c06d4-914c-4bb0-a924-d3e790ec69a7",
            "measure_version_modified" : "20191030T020543Z",
            "measure_xml_checksum" : "2AF3A68E",
            "started_at" : "20191231T200930Z",
            "stderr" : "",
            "stdout" : "",
            "step_errors" : [],
            "step_files" : [],
            "step_final_condition" : "The building finished with 114 spaces.",
            "step_info" : [
               "0.0 value for aspect ratio will be replaced with smart default for LargeHotel of 5.1.",
               "0.0 value for window to wall ratio will be replaced with smart default for LargeHotel of 0.27.",
               "Creating Space Types for LargeHotel.",
               "Intersecting surfaces, this will create additional geometry.",
               "Created Bar envlope with floor area of 316,160 (ft^2)",
               "Target party wall fraction is 0.0. Realized fraction is 0.0"
            ],
            "step_initial_condition" : "The building started with 0 spaces.",
            "step_result" : "Success",
            "step_values" : [
               {
                  "name" : "bldg_type_a",
                  "value" : "LargeHotel"
               },
               {
                  "name" : "bldg_type_a_num_units",
                  "value" : 0
               },
               {
                  "name" : "bldg_type_b",
                  "value" : "SmallOffice"
               },
               {
                  "name" : "bldg_type_b_fract_bldg_area",
                  "value" : 0
               },
               {
                  "name" : "bldg_type_b_num_units",
                  "value" : 0
               },
               {
                  "name" : "bldg_type_c",
                  "value" : "SmallOffice"
               },
               {
                  "name" : "bldg_type_c_fract_bldg_area",
                  "value" : 0
               },
               {
                  "name" : "bldg_type_c_num_units",
                  "value" : 0
               },
               {
                  "name" : "bldg_type_d",
                  "value" : "SmallOffice"
               },
               {
                  "name" : "bldg_type_d_fract_bldg_area",
                  "value" : 0
               },
               {
                  "name" : "bldg_type_d_num_units",
                  "value" : 0
               },
               {
                  "name" : "single_floor_area",
                  "value" : 31616
               },
               {
                  "name" : "total_bldg_floor_area",
                  "value" : 10000
               },
               {
                  "name" : "floor_height",
                  "value" : 10
               },
               {
                  "name" : "num_stories_above_grade",
                  "value" : 10
               },
               {
                  "name" : "num_stories_below_grade",
                  "value" : 0
               },
               {
                  "name" : "building_rotation",
                  "value" : 0
               },
               {
                  "name" : "template",
                  "value" : "90.1-2004"
               },
               {
                  "name" : "ns_to_ew_ratio",
                  "value" : 0
               },
               {
                  "name" : "wwr",
                  "value" : 0
               },
               {
                  "name" : "party_wall_fraction",
                  "value" : 0
               },
               {
                  "name" : "party_wall_stories_north",
                  "value" : 0
               },
               {
                  "name" : "party_wall_stories_south",
                  "value" : 0
               },
               {
                  "name" : "party_wall_stories_east",
                  "value" : 0
               },
               {
                  "name" : "party_wall_stories_west",
                  "value" : 0
               },
               {
                  "name" : "bottom_story_ground_exposed_floor",
                  "value" : true
               },
               {
                  "name" : "top_story_exterior_exposed_roof",
                  "value" : true
               },
               {
                  "name" : "story_multiplier",
                  "value" : "None"
               },
               {
                  "name" : "bar_division_method",
                  "value" : "Multiple Space Types - Individual Stories Sliced"
               },
               {
                  "name" : "make_mid_story_surfaces_adiabatic",
                  "value" : false
               },
               {
                  "name" : "use_upstream_args",
                  "value" : true
               },
               {
                  "name" : "party_wall_fraction_actual",
                  "value" : 0
               }
            ],
            "step_warnings" : [
               "Could not find color for 90.1-2004 LargeHotel Banquet",
               "Could not find color for 90.1-2004 LargeHotel Cafe",
               "Could not find color for 90.1-2004 LargeHotel Corridor",
               "Could not find color for 90.1-2004 LargeHotel GuestRoom",
               "Could not find color for 90.1-2004 LargeHotel Kitchen",
               "Could not find color for 90.1-2004 LargeHotel Laundry",
               "Could not find color for 90.1-2004 LargeHotel Lobby",
               "Could not find color for 90.1-2004 LargeHotel Mechanical",
               "Could not find color for 90.1-2004 LargeHotel Retail",
               "Could not find color for 90.1-2004 LargeHotel Storage",
               "User-defined single floor area was used for calculation of total building floor area"
            ]
         }
      },
      {
         "arguments" : {
            "add_hvac" : false
         },
         "measure_dir_name" : "create_typical_building_from_model",
         "name" : "create_typical_building_from_model 1",
         "result" : {
            "completed_at" : "20191231T201006Z",
            "measure_class_name" : "CreateTypicalBuildingFromModel",
            "measure_display_name" : "Create Typical Building from Model",
            "measure_name" : "create_typical_building_from_model",
            "measure_taxonomy" : "Whole Building.Space Types",
            "measure_type" : "ModelMeasure",
            "measure_uid" : "339a2e3a-273c-4494-bb50-bfe586a0647c",
            "measure_version_id" : "87ebffcf-eacc-4a82-9543-d033695df855",
            "measure_version_modified" : "20191030T020543Z",
            "measure_xml_checksum" : "EE13F09F",
            "started_at" : "20191231T200954Z",
            "stderr" : "",
            "stdout" : "[utilities.geometry.joinAll] <1> Expected polygons to join together\n[utilities.geometry.joinAll] <1> Expected polygons to join together\n",
            "step_errors" : [],
            "step_files" : [],
            "step_final_condition" : "The building finished with 2842 objects.",
            "step_info" : [
               "Replacing argument named template from current measure with a value of 90.1-2004 from create_bar_from_building_type_ratios.",
               "Adding loads to space type named LargeHotel Retail - 90.1-2004",
               "Adding loads to space type named LargeHotel Mechanical - 90.1-2004",
               "Adding loads to space type named LargeHotel Lobby - 90.1-2004",
               "Adding loads to space type named LargeHotel Laundry - 90.1-2004",
               "Adding loads to space type named LargeHotel Kitchen - 90.1-2004",
               "Adding loads to space type named LargeHotel GuestRoom - 90.1-2004",
               "Adding loads to space type named LargeHotel Corridor - 90.1-2004",
               "Adding loads to space type named LargeHotel Storage - 90.1-2004",
               "Adding loads to space type named LargeHotel Cafe - 90.1-2004",
               "Adding loads to space type named LargeHotel Banquet - 90.1-2004",
               "Adding default construction set named Res 90.1-2004 - LrgHotel - ASHRAE 169-2013-6A",
               "Adding 13.0 elevators each with power of 20,370 (W), plus lights and fans.",
               "Adding Exterior Lights named Parking Areas and Drives Def (W/ft^2) with design level of 0.15 * 227,289.",
               "Adding Exterior Lights named Building Facades Def (W/ft^2) with design level of 0.2 * 9,606.",
               "Adding Exterior Lights named Main Entries Def (W/ft) with design level of 30.0 * 51.",
               "Adding Exterior Lights named Other Doors Def (W/ft) with design level of 20.0 * 29.",
               "Adding Exterior Lights named Entry Canopies Def (W/ft^2) with design level of 1.25 * 1,620.",
               "Adding 465 (cfm) of exhaust to Zone LargeHotel Kitchen A  - Story Ground",
               "Adding 1,510 (cfm) of exhaust to Zone LargeHotel Kitchen B  - Story Ground",
               "Adding 465 (cfm) of exhaust to Zone LargeHotel Kitchen C  - Story Ground",
               "Adding LargeHotel Kitchen - 90.1-2004 Service Water Loop to the building. It has 1 water use connections.",
               "Adding LargeHotel Laundry - 90.1-2004 Service Water Loop to the building. It has 1 water use connections.",
               "Adding LargeHotel Shared Service Water Loop to the building. It has 1 water use connections.",
               "Assigning LargeHotel Retail - 90.1-2004 Thermostat to thermal zones with LargeHotel Retail - 90.1-2004 assigned.",
               "Assigning LargeHotel Mechanical - 90.1-2004 Thermostat to thermal zones with LargeHotel Mechanical - 90.1-2004 assigned.",
               "Assigning LargeHotel Lobby - 90.1-2004 Thermostat to thermal zones with LargeHotel Lobby - 90.1-2004 assigned.",
               "Assigning LargeHotel Laundry - 90.1-2004 Thermostat to thermal zones with LargeHotel Laundry - 90.1-2004 assigned.",
               "Assigning LargeHotel Kitchen - 90.1-2004 Thermostat to thermal zones with LargeHotel Kitchen - 90.1-2004 assigned.",
               "Assigning LargeHotel GuestRoom - 90.1-2004 Thermostat to thermal zones with LargeHotel GuestRoom - 90.1-2004 assigned.",
               "Assigning LargeHotel Corridor - 90.1-2004 Thermostat to thermal zones with LargeHotel Corridor - 90.1-2004 assigned.",
               "Assigning LargeHotel Storage - 90.1-2004 Thermostat to thermal zones with LargeHotel Storage - 90.1-2004 assigned.",
               "Assigning LargeHotel Cafe - 90.1-2004 Thermostat to thermal zones with LargeHotel Cafe - 90.1-2004 assigned.",
               "Assigning LargeHotel Banquet - 90.1-2004 Thermostat to thermal zones with LargeHotel Banquet - 90.1-2004 assigned.",
               "Using OpenStudio Standards version 0.2.10 with template 90.1-2004.",
               "Loading OpenStudio Standards data for 90.1-2004",
               "LargeHotel Retail had no people, one has been created.",
               "LargeHotel Retail set occupancy to 15.0 people/1000 ft^2.",
               "LargeHotel Retail had no lights, one has been created.",
               "LargeHotel Retail set LPD to 1.5 W/ft^2.",
               "LargeHotel Retail had no electric equipment, one has been created.",
               "LargeHotel Retail set electric EPD to 1.0 W/ft^2.",
               "LargeHotel Retail had no ventilation specification, one has been created.",
               "LargeHotel Retail set ventilation per area to 0.3 cfm/ft^2.",
               "LargeHotel Retail set occupancy schedule to HotelLarge BLDG_OCC_SCH.",
               "LargeHotel Retail set occupant activity schedule to HotelLarge ACTIVITY_SCH.",
               "LargeHotel Retail set lighting schedule to HotelLarge BLDG_LIGHT_SCH.",
               "LargeHotel Retail set electric equipment schedule to HotelLarge BLDG_EQUIP_SCH.",
               "LargeHotel Retail set infiltration schedule to HotelLarge INFIL_SCH.",
               "LargeHotel Mechanical had no lights, one has been created.",
               "LargeHotel Mechanical set LPD to 1.5 W/ft^2.",
               "LargeHotel Mechanical had no electric equipment, one has been created.",
               "LargeHotel Mechanical set electric EPD to 0.5 W/ft^2.",
               "LargeHotel Mechanical had no ventilation specification, one has been created.",
               "LargeHotel Mechanical set ventilation per area to 0.05 cfm/ft^2.",
               "LargeHotel Mechanical set occupancy schedule to HotelLarge BLDG_OCC_SCH.",
               "LargeHotel Mechanical set occupant activity schedule to HotelLarge ACTIVITY_SCH.",
               "LargeHotel Mechanical set lighting schedule to HotelLarge BLDG_LIGHT_SCH.",
               "LargeHotel Mechanical set electric equipment schedule to HotelLarge BASEMENT_EQUIP_SCH.",
               "LargeHotel Mechanical set infiltration schedule to HotelLarge INFIL_SCH.",
               "LargeHotel Lobby had no people, one has been created.",
               "LargeHotel Lobby set occupancy to 30.0 people/1000 ft^2.",
               "LargeHotel Lobby had no lights, one has been created.",
               "LargeHotel Lobby set LPD to 1.1 W/ft^2.",
               "LargeHotel Lobby had no electric equipment, one has been created.",
               "LargeHotel Lobby set electric EPD to 0.7500000000000001 W/ft^2.",
               "LargeHotel Lobby had no ventilation specification, one has been created.",
               "LargeHotel Lobby set ventilation per person to 15.0 cfm/person.",
               "LargeHotel Lobby set occupancy schedule to HotelLarge BLDG_OCC_SCH.",
               "LargeHotel Lobby set occupant activity schedule to HotelLarge ACTIVITY_SCH.",
               "LargeHotel Lobby set lighting schedule to HotelLarge BLDG_LIGHT_SCH.",
               "LargeHotel Lobby set electric equipment schedule to HotelLarge BLDG_EQUIP_SCH.",
               "LargeHotel Lobby set infiltration schedule to HotelLarge INFIL_SCH.",
               "LargeHotel Laundry had no people, one has been created.",
               "LargeHotel Laundry set occupancy to 4.0 people/1000 ft^2.",
               "LargeHotel Laundry had no lights, one has been created.",
               "LargeHotel Laundry set LPD to 0.6 W/ft^2.",
               "LargeHotel Laundry had no electric equipment, one has been created.",
               "LargeHotel Laundry set electric EPD to 5.73 W/ft^2.",
               "LargeHotel Laundry had no gas equipment, one has been created.",
               "LargeHotel Laundry set gas EPD to 170.0 Btu/hr*ft^2.",
               "LargeHotel Laundry had no ventilation specification, one has been created.",
               "LargeHotel Laundry set ventilation per person to 25.0 cfm/person.",
               "LargeHotel Laundry set occupancy schedule to HotelLarge LaundryRoom_Occ_Sch.",
               "LargeHotel Laundry set occupant activity schedule to HotelLarge ACTIVITY_SCH.",
               "LargeHotel Laundry set lighting schedule to HotelLarge BLDG_LIGHT_SCH.",
               "LargeHotel Laundry set electric equipment schedule to HotelLarge BLDG_EQUIP_SCH.",
               "LargeHotel Laundry set gas equipment schedule to HotelLarge BLDG_EQUIP_SCH.",
               "LargeHotel Laundry set infiltration schedule to HotelLarge INFIL_SCH.",
               "LargeHotel Kitchen had no people, one has been created.",
               "LargeHotel Kitchen set occupancy to 5.0 people/1000 ft^2.",
               "LargeHotel Kitchen had no lights, one has been created.",
               "LargeHotel Kitchen set LPD to 1.2 W/ft^2.",
               "LargeHotel Kitchen had no electric equipment, one has been created.",
               "LargeHotel Kitchen set electric EPD to 47.2 W/ft^2.",
               "LargeHotel Kitchen had no gas equipment, one has been created.",
               "LargeHotel Kitchen set gas EPD to 767.0 Btu/hr*ft^2.",
               "LargeHotel Kitchen had no ventilation specification, one has been created.",
               "LargeHotel Kitchen set ventilation per area to 0.47 cfm/ft^2.",
               "LargeHotel Kitchen set occupancy schedule to HotelLarge BLDG_OCC_SCH.",
               "LargeHotel Kitchen set occupant activity schedule to HotelLarge ACTIVITY_SCH.",
               "LargeHotel Kitchen set lighting schedule to HotelLarge BLDG_LIGHT_SCH.",
               "LargeHotel Kitchen set electric equipment schedule to HotelLarge Kitchen_Elec_Equip_SCH.",
               "LargeHotel Kitchen set gas equipment schedule to HotelLarge Kitchen_Gas_Equip_SCH.",
               "LargeHotel Kitchen set infiltration schedule to HotelLarge INFIL_SCH.",
               "LargeHotel GuestRoom had no people, one has been created.",
               "LargeHotel GuestRoom set occupancy to 3.57 people/1000 ft^2.",
               "LargeHotel GuestRoom had no lights, one has been created.",
               "LargeHotel GuestRoom set LPD to 1.1 W/ft^2.",
               "LargeHotel GuestRoom had no electric equipment, one has been created.",
               "LargeHotel GuestRoom set electric EPD to 0.627 W/ft^2.",
               "LargeHotel GuestRoom had no ventilation specification, one has been created.",
               "LargeHotel GuestRoom set ventilation per person to 15.0 cfm/person.",
               "LargeHotel GuestRoom set occupancy schedule to HotelLarge GuestRoom_Occ_Sch.",
               "LargeHotel GuestRoom set occupant activity schedule to HotelLarge ACTIVITY_SCH.",
               "LargeHotel GuestRoom set lighting schedule to HotelLarge BLDG_LIGHT_GUESTROOM_SCH.",
               "LargeHotel GuestRoom set electric equipment schedule to HotelLarge GuestRoom_Eqp_Sch_Base.",
               "LargeHotel GuestRoom set infiltration schedule to HotelLarge INFIL_SCH.",
               "LargeHotel Corridor had no people, one has been created.",
               "LargeHotel Corridor set occupancy to 1.0 people/1000 ft^2.",
               "LargeHotel Corridor had no lights, one has been created.",
               "LargeHotel Corridor set LPD to 0.5 W/ft^2.",
               "LargeHotel Corridor had no ventilation specification, one has been created.",
               "LargeHotel Corridor set ventilation per area to 0.05 cfm/ft^2.",
               "LargeHotel Corridor set occupancy schedule to HotelLarge BLDG_OCC_SCH.",
               "LargeHotel Corridor set occupant activity schedule to HotelLarge ACTIVITY_SCH.",
               "LargeHotel Corridor set lighting schedule to HotelLarge BLDG_LIGHT_CORRIDOR_SCH.",
               "LargeHotel Corridor set electric equipment schedule to HotelLarge BLDG_EQUIP_SCH.",
               "LargeHotel Corridor set infiltration schedule to HotelLarge INFIL_SCH.",
               "LargeHotel Storage had no people, one has been created.",
               "LargeHotel Storage set occupancy to 2.0 people/1000 ft^2.",
               "LargeHotel Storage had no lights, one has been created.",
               "LargeHotel Storage set LPD to 0.8 W/ft^2.",
               "LargeHotel Storage had no electric equipment, one has been created.",
               "LargeHotel Storage set electric EPD to 0.24999999999999997 W/ft^2.",
               "LargeHotel Storage had no ventilation specification, one has been created.",
               "LargeHotel Storage set ventilation per area to 0.15 cfm/ft^2.",
               "LargeHotel Storage set occupancy schedule to HotelLarge BLDG_OCC_SCH.",
               "LargeHotel Storage set occupant activity schedule to HotelLarge ACTIVITY_SCH.",
               "LargeHotel Storage set lighting schedule to HotelLarge BLDG_LIGHT_STORAGE_SCH.",
               "LargeHotel Storage set electric equipment schedule to HotelLarge BASEMENT_EQUIP_SCH.",
               "LargeHotel Storage set infiltration schedule to HotelLarge INFIL_SCH.",
               "LargeHotel Cafe had no people, one has been created.",
               "LargeHotel Cafe set occupancy to 67.0 people/1000 ft^2.",
               "LargeHotel Cafe had no lights, one has been created.",
               "LargeHotel Cafe set LPD to 1.3 W/ft^2.",
               "LargeHotel Cafe had no electric equipment, one has been created.",
               "LargeHotel Cafe set electric EPD to 0.5 W/ft^2.",
               "LargeHotel Cafe had no ventilation specification, one has been created.",
               "LargeHotel Cafe set ventilation per person to 20.0 cfm/person.",
               "LargeHotel Cafe set occupancy schedule to HotelLarge BLDG_OCC_SCH.",
               "LargeHotel Cafe set occupant activity schedule to HotelLarge ACTIVITY_SCH.",
               "LargeHotel Cafe set lighting schedule to HotelLarge BLDG_LIGHT_SCH.",
               "LargeHotel Cafe set electric equipment schedule to HotelLarge BLDG_EQUIP_SCH.",
               "LargeHotel Cafe set infiltration schedule to HotelLarge INFIL_SCH.",
               "LargeHotel Banquet had no people, one has been created.",
               "LargeHotel Banquet set occupancy to 67.0 people/1000 ft^2.",
               "LargeHotel Banquet had no lights, one has been created.",
               "LargeHotel Banquet set LPD to 1.3 W/ft^2.",
               "LargeHotel Banquet had no electric equipment, one has been created.",
               "LargeHotel Banquet set electric EPD to 6.301 W/ft^2.",
               "LargeHotel Banquet had no ventilation specification, one has been created.",
               "LargeHotel Banquet set ventilation per person to 20.0 cfm/person.",
               "LargeHotel Banquet set occupancy schedule to HotelLarge MeetingRoom_Occ_Sch.",
               "LargeHotel Banquet set occupant activity schedule to HotelLarge ACTIVITY_SCH.",
               "LargeHotel Banquet set lighting schedule to HotelLarge BLDG_LIGHT_SCH.",
               "LargeHotel Banquet set electric equipment schedule to HotelLarge Kitchen_Elec_Equip_SCH.",
               "LargeHotel Banquet set infiltration schedule to HotelLarge INFIL_SCH.",
               "Adding construction set: 90.1-2004-ASHRAE 169-2013-6A-LargeHotel--is_residentialYes",
               "Adding construction Typical Insulated Exterior Mass Floor R-11.49.",
               "Adding construction Typical Insulated Exterior Mass Wall R-9.62.",
               "Adding construction Typical IEAD Roof R-15.87.",
               "Adding construction LargeHotel Interior Floor.",
               "Adding construction LargeHotel Interior Wall.",
               "Adding construction LargeHotel Interior Ceiling.",
               "Adding construction Typical Insulated Carpeted 6in Slab Floor.",
               "Adding construction Typical Insulated Basement Mass Wall.",
               "Adding construction U 0.57 SHGC 0.49 Dbl Blue 6mm/6mm Air.",
               "Adding construction Typical Insulated Metal Door R-1.43.",
               "Adding construction Typical Overhead Door R-2.0.",
               "Adding construction U 1.17 SHGC 0.49 Simple Glazing Skylight U-1.17 SHGC 0.0.",
               "Adding construction Typical Interior Window.",
               "Adding construction Typical Interior Door.",
               "Adding construction Typical Interior Partition.",
               "For LargeHotel Banquet A  - Story Ground, set infiltration rate to 0.202 cfm/ft2 exterior wall area (aka 1.8 cfm/ft2 @75Pa).",
               "For LargeHotel Banquet A  - Story Mid, set infiltration rate to 0.202 cfm/ft2 exterior wall area (aka 1.8 cfm/ft2 @75Pa).",
               "For LargeHotel Banquet A end_a - Story Mid, set infiltration rate to 0.202 cfm/ft2 exterior wall area (aka 1.8 cfm/ft2 @75Pa).",
               "For LargeHotel Banquet B  - Story Ground, no exterior wall area was found, no infiltration will be added.",
               "For LargeHotel Banquet B  - Story Mid, no exterior wall area was found, no infiltration will be added.",
               "For LargeHotel Banquet B end_a - Story Mid, set infiltration rate to 0.202 cfm/ft2 exterior wall area (aka 1.8 cfm/ft2 @75Pa).",
               "For LargeHotel Banquet C  - Story Ground, set infiltration rate to 0.202 cfm/ft2 exterior wall area (aka 1.8 cfm/ft2 @75Pa).",
               "For LargeHotel Banquet C  - Story Mid, set infiltration rate to 0.202 cfm/ft2 exterior wall area (aka 1.8 cfm/ft2 @75Pa).",
               "For LargeHotel Banquet C end_a - Story Mid, set infiltration rate to 0.202 cfm/ft2 exterior wall area (aka 1.8 cfm/ft2 @75Pa).",
               "For LargeHotel Cafe A  - Story Ground, set infiltration rate to 0.202 cfm/ft2 exterior wall area (aka 1.8 cfm/ft2 @75Pa).",
               "For LargeHotel Cafe A end_a - Story Ground, set infiltration rate to 0.202 cfm/ft2 exterior wall area (aka 1.8 cfm/ft2 @75Pa).",
               "For LargeHotel Cafe B  - Story Ground, no exterior wall area was found, no infiltration will be added.",
               "For LargeHotel Cafe B end_a - Story Ground, set infiltration rate to 0.202 cfm/ft2 exterior wall area (aka 1.8 cfm/ft2 @75Pa).",
               "For LargeHotel Cafe C  - Story Ground, set infiltration rate to 0.202 cfm/ft2 exterior wall area (aka 1.8 cfm/ft2 @75Pa).",
               "For LargeHotel Cafe C end_a - Story Ground, set infiltration rate to 0.202 cfm/ft2 exterior wall area (aka 1.8 cfm/ft2 @75Pa).",
               "For LargeHotel Corridor A  - Story Mid2, set infiltration rate to 0.202 cfm/ft2 exterior wall area (aka 1.8 cfm/ft2 @75Pa).",
               "For LargeHotel Corridor A  - Story Mid3, set infiltration rate to 0.202 cfm/ft2 exterior wall area (aka 1.8 cfm/ft2 @75Pa).",
               "For LargeHotel Corridor A  - Story Mid4, set infiltration rate to 0.202 cfm/ft2 exterior wall area (aka 1.8 cfm/ft2 @75Pa).",
               "For LargeHotel Corridor A  - Story Mid5, set infiltration rate to 0.202 cfm/ft2 exterior wall area (aka 1.8 cfm/ft2 @75Pa).",
               "For LargeHotel Corridor A end_a - Story Mid3, set infiltration rate to 0.202 cfm/ft2 exterior wall area (aka 1.8 cfm/ft2 @75Pa).",
               "For LargeHotel Corridor A end_a - Story Mid4, set infiltration rate to 0.202 cfm/ft2 exterior wall area (aka 1.8 cfm/ft2 @75Pa).",
               "For LargeHotel Corridor A end_b - Story Mid2, set infiltration rate to 0.202 cfm/ft2 exterior wall area (aka 1.8 cfm/ft2 @75Pa).",
               "For LargeHotel Corridor A end_b - Story Mid3, set infiltration rate to 0.202 cfm/ft2 exterior wall area (aka 1.8 cfm/ft2 @75Pa).",
               "For LargeHotel Corridor A end_b - Story Mid4, set infiltration rate to 0.202 cfm/ft2 exterior wall area (aka 1.8 cfm/ft2 @75Pa).",
               "For LargeHotel Corridor B  - Story Mid2, no exterior wall area was found, no infiltration will be added.",
               "For LargeHotel Corridor B  - Story Mid3, no exterior wall area was found, no infiltration will be added.",
               "For LargeHotel Corridor B  - Story Mid4, no exterior wall area was found, no infiltration will be added.",
               "For LargeHotel Corridor B  - Story Mid5, set infiltration rate to 0.202 cfm/ft2 exterior wall area (aka 1.8 cfm/ft2 @75Pa).",
               "For LargeHotel Corridor B end_a - Story Mid3, set infiltration rate to 0.202 cfm/ft2 exterior wall area (aka 1.8 cfm/ft2 @75Pa).",
               "For LargeHotel Corridor B end_a - Story Mid4, set infiltration rate to 0.202 cfm/ft2 exterior wall area (aka 1.8 cfm/ft2 @75Pa).",
               "For LargeHotel Corridor B end_b - Story Mid2, set infiltration rate to 0.202 cfm/ft2 exterior wall area (aka 1.8 cfm/ft2 @75Pa).",
               "For LargeHotel Corridor B end_b - Story Mid3, set infiltration rate to 0.202 cfm/ft2 exterior wall area (aka 1.8 cfm/ft2 @75Pa).",
               "For LargeHotel Corridor B end_b - Story Mid4, set infiltration rate to 0.202 cfm/ft2 exterior wall area (aka 1.8 cfm/ft2 @75Pa).",
               "For LargeHotel Corridor C  - Story Mid2, set infiltration rate to 0.202 cfm/ft2 exterior wall area (aka 1.8 cfm/ft2 @75Pa).",
               "For LargeHotel Corridor C  - Story Mid3, set infiltration rate to 0.202 cfm/ft2 exterior wall area (aka 1.8 cfm/ft2 @75Pa).",
               "For LargeHotel Corridor C  - Story Mid4, set infiltration rate to 0.202 cfm/ft2 exterior wall area (aka 1.8 cfm/ft2 @75Pa).",
               "For LargeHotel Corridor C  - Story Mid5, set infiltration rate to 0.202 cfm/ft2 exterior wall area (aka 1.8 cfm/ft2 @75Pa).",
               "For LargeHotel Corridor C end_a - Story Mid3, set infiltration rate to 0.202 cfm/ft2 exterior wall area (aka 1.8 cfm/ft2 @75Pa).",
               "For LargeHotel Corridor C end_a - Story Mid4, set infiltration rate to 0.202 cfm/ft2 exterior wall area (aka 1.8 cfm/ft2 @75Pa).",
               "For LargeHotel Corridor C end_b - Story Mid2, set infiltration rate to 0.202 cfm/ft2 exterior wall area (aka 1.8 cfm/ft2 @75Pa).",
               "For LargeHotel Corridor C end_b - Story Mid3, set infiltration rate to 0.202 cfm/ft2 exterior wall area (aka 1.8 cfm/ft2 @75Pa).",
               "For LargeHotel Corridor C end_b - Story Mid4, set infiltration rate to 0.202 cfm/ft2 exterior wall area (aka 1.8 cfm/ft2 @75Pa).",
               "For LargeHotel GuestRoom A  - Story Mid5, set infiltration rate to 0.202 cfm/ft2 exterior wall area (aka 1.8 cfm/ft2 @75Pa).",
               "For LargeHotel GuestRoom A  - Story Mid6, set infiltration rate to 0.202 cfm/ft2 exterior wall area (aka 1.8 cfm/ft2 @75Pa).",
               "For LargeHotel GuestRoom A  - Story Mid7, set infiltration rate to 0.202 cfm/ft2 exterior wall area (aka 1.8 cfm/ft2 @75Pa).",
               "For LargeHotel GuestRoom A  - Story Mid8, set infiltration rate to 0.202 cfm/ft2 exterior wall area (aka 1.8 cfm/ft2 @75Pa).",
               "For LargeHotel GuestRoom A  - Story Top, set infiltration rate to 0.202 cfm/ft2 exterior wall area (aka 1.8 cfm/ft2 @75Pa).",
               "For LargeHotel GuestRoom A end_a - Story Mid5, set infiltration rate to 0.202 cfm/ft2 exterior wall area (aka 1.8 cfm/ft2 @75Pa).",
               "For LargeHotel GuestRoom A end_a - Story Mid6, set infiltration rate to 0.202 cfm/ft2 exterior wall area (aka 1.8 cfm/ft2 @75Pa).",
               "For LargeHotel GuestRoom A end_a - Story Mid7, set infiltration rate to 0.202 cfm/ft2 exterior wall area (aka 1.8 cfm/ft2 @75Pa).",
               "For LargeHotel GuestRoom A end_a - Story Mid8, set infiltration rate to 0.202 cfm/ft2 exterior wall area (aka 1.8 cfm/ft2 @75Pa).",
               "For LargeHotel GuestRoom A end_a - Story Top, set infiltration rate to 0.202 cfm/ft2 exterior wall area (aka 1.8 cfm/ft2 @75Pa).",
               "For LargeHotel GuestRoom A end_b - Story Mid6, set infiltration rate to 0.202 cfm/ft2 exterior wall area (aka 1.8 cfm/ft2 @75Pa).",
               "For LargeHotel GuestRoom A end_b - Story Mid7, set infiltration rate to 0.202 cfm/ft2 exterior wall area (aka 1.8 cfm/ft2 @75Pa).",
               "For LargeHotel GuestRoom A end_b - Story Mid8, set infiltration rate to 0.202 cfm/ft2 exterior wall area (aka 1.8 cfm/ft2 @75Pa).",
               "For LargeHotel GuestRoom A end_b - Story Top, set infiltration rate to 0.202 cfm/ft2 exterior wall area (aka 1.8 cfm/ft2 @75Pa).",
               "For LargeHotel GuestRoom B  - Story Mid5, no exterior wall area was found, no infiltration will be added.",
               "For LargeHotel GuestRoom B  - Story Mid6, no exterior wall area was found, no infiltration will be added.",
               "For LargeHotel GuestRoom B  - Story Mid7, no exterior wall area was found, no infiltration will be added.",
               "For LargeHotel GuestRoom B  - Story Mid8, no exterior wall area was found, no infiltration will be added.",
               "For LargeHotel GuestRoom B  - Story Top, no exterior wall area was found, no infiltration will be added.",
               "For LargeHotel GuestRoom B end_a - Story Mid5, set infiltration rate to 0.202 cfm/ft2 exterior wall area (aka 1.8 cfm/ft2 @75Pa).",
               "For LargeHotel GuestRoom B end_a - Story Mid6, set infiltration rate to 0.202 cfm/ft2 exterior wall area (aka 1.8 cfm/ft2 @75Pa).",
               "For LargeHotel GuestRoom B end_a - Story Mid7, set infiltration rate to 0.202 cfm/ft2 exterior wall area (aka 1.8 cfm/ft2 @75Pa).",
               "For LargeHotel GuestRoom B end_a - Story Mid8, set infiltration rate to 0.202 cfm/ft2 exterior wall area (aka 1.8 cfm/ft2 @75Pa).",
               "For LargeHotel GuestRoom B end_a - Story Top, set infiltration rate to 0.202 cfm/ft2 exterior wall area (aka 1.8 cfm/ft2 @75Pa).",
               "For LargeHotel GuestRoom B end_b - Story Mid6, set infiltration rate to 0.202 cfm/ft2 exterior wall area (aka 1.8 cfm/ft2 @75Pa).",
               "For LargeHotel GuestRoom B end_b - Story Mid7, set infiltration rate to 0.202 cfm/ft2 exterior wall area (aka 1.8 cfm/ft2 @75Pa).",
               "For LargeHotel GuestRoom B end_b - Story Mid8, set infiltration rate to 0.202 cfm/ft2 exterior wall area (aka 1.8 cfm/ft2 @75Pa).",
               "For LargeHotel GuestRoom B end_b - Story Top, set infiltration rate to 0.202 cfm/ft2 exterior wall area (aka 1.8 cfm/ft2 @75Pa).",
               "For LargeHotel GuestRoom C  - Story Mid5, set infiltration rate to 0.202 cfm/ft2 exterior wall area (aka 1.8 cfm/ft2 @75Pa).",
               "For LargeHotel GuestRoom C  - Story Mid6, set infiltration rate to 0.202 cfm/ft2 exterior wall area (aka 1.8 cfm/ft2 @75Pa).",
               "For LargeHotel GuestRoom C  - Story Mid7, set infiltration rate to 0.202 cfm/ft2 exterior wall area (aka 1.8 cfm/ft2 @75Pa).",
               "For LargeHotel GuestRoom C  - Story Mid8, set infiltration rate to 0.202 cfm/ft2 exterior wall area (aka 1.8 cfm/ft2 @75Pa).",
               "For LargeHotel GuestRoom C  - Story Top, set infiltration rate to 0.202 cfm/ft2 exterior wall area (aka 1.8 cfm/ft2 @75Pa).",
               "For LargeHotel GuestRoom C end_a - Story Mid5, set infiltration rate to 0.202 cfm/ft2 exterior wall area (aka 1.8 cfm/ft2 @75Pa).",
               "For LargeHotel GuestRoom C end_a - Story Mid6, set infiltration rate to 0.202 cfm/ft2 exterior wall area (aka 1.8 cfm/ft2 @75Pa).",
               "For LargeHotel GuestRoom C end_a - Story Mid7, set infiltration rate to 0.202 cfm/ft2 exterior wall area (aka 1.8 cfm/ft2 @75Pa).",
               "For LargeHotel GuestRoom C end_a - Story Mid8, set infiltration rate to 0.202 cfm/ft2 exterior wall area (aka 1.8 cfm/ft2 @75Pa).",
               "For LargeHotel GuestRoom C end_a - Story Top, set infiltration rate to 0.202 cfm/ft2 exterior wall area (aka 1.8 cfm/ft2 @75Pa).",
               "For LargeHotel GuestRoom C end_b - Story Mid6, set infiltration rate to 0.202 cfm/ft2 exterior wall area (aka 1.8 cfm/ft2 @75Pa).",
               "For LargeHotel GuestRoom C end_b - Story Mid7, set infiltration rate to 0.202 cfm/ft2 exterior wall area (aka 1.8 cfm/ft2 @75Pa).",
               "For LargeHotel GuestRoom C end_b - Story Mid8, set infiltration rate to 0.202 cfm/ft2 exterior wall area (aka 1.8 cfm/ft2 @75Pa).",
               "For LargeHotel GuestRoom C end_b - Story Top, set infiltration rate to 0.202 cfm/ft2 exterior wall area (aka 1.8 cfm/ft2 @75Pa).",
               "For LargeHotel Kitchen A  - Story Ground, set infiltration rate to 0.202 cfm/ft2 exterior wall area (aka 1.8 cfm/ft2 @75Pa).",
               "For LargeHotel Kitchen B  - Story Ground, no exterior wall area was found, no infiltration will be added.",
               "For LargeHotel Kitchen C  - Story Ground, set infiltration rate to 0.202 cfm/ft2 exterior wall area (aka 1.8 cfm/ft2 @75Pa).",
               "For LargeHotel Laundry A  - Story Ground, set infiltration rate to 0.202 cfm/ft2 exterior wall area (aka 1.8 cfm/ft2 @75Pa).",
               "For LargeHotel Laundry B  - Story Ground, no exterior wall area was found, no infiltration will be added.",
               "For LargeHotel Laundry C  - Story Ground, set infiltration rate to 0.202 cfm/ft2 exterior wall area (aka 1.8 cfm/ft2 @75Pa).",
               "For LargeHotel Lobby A  - Story Mid, set infiltration rate to 0.202 cfm/ft2 exterior wall area (aka 1.8 cfm/ft2 @75Pa).",
               "For LargeHotel Lobby A  - Story Mid2, set infiltration rate to 0.202 cfm/ft2 exterior wall area (aka 1.8 cfm/ft2 @75Pa).",
               "For LargeHotel Lobby A end_a - Story Mid2, set infiltration rate to 0.202 cfm/ft2 exterior wall area (aka 1.8 cfm/ft2 @75Pa).",
               "For LargeHotel Lobby A end_b - Story Mid, set infiltration rate to 0.202 cfm/ft2 exterior wall area (aka 1.8 cfm/ft2 @75Pa).",
               "For LargeHotel Lobby B  - Story Mid, no exterior wall area was found, no infiltration will be added.",
               "For LargeHotel Lobby B  - Story Mid2, no exterior wall area was found, no infiltration will be added.",
               "For LargeHotel Lobby B end_a - Story Mid2, set infiltration rate to 0.202 cfm/ft2 exterior wall area (aka 1.8 cfm/ft2 @75Pa).",
               "For LargeHotel Lobby B end_b - Story Mid, set infiltration rate to 0.202 cfm/ft2 exterior wall area (aka 1.8 cfm/ft2 @75Pa).",
               "For LargeHotel Lobby C  - Story Mid, set infiltration rate to 0.202 cfm/ft2 exterior wall area (aka 1.8 cfm/ft2 @75Pa).",
               "For LargeHotel Lobby C  - Story Mid2, set infiltration rate to 0.202 cfm/ft2 exterior wall area (aka 1.8 cfm/ft2 @75Pa).",
               "For LargeHotel Lobby C end_a - Story Mid2, set infiltration rate to 0.202 cfm/ft2 exterior wall area (aka 1.8 cfm/ft2 @75Pa).",
               "For LargeHotel Lobby C end_b - Story Mid, set infiltration rate to 0.202 cfm/ft2 exterior wall area (aka 1.8 cfm/ft2 @75Pa).",
               "For LargeHotel Mechanical A  - Story Ground, set infiltration rate to 0.202 cfm/ft2 exterior wall area (aka 1.8 cfm/ft2 @75Pa).",
               "For LargeHotel Mechanical A end_b - Story Ground, set infiltration rate to 0.202 cfm/ft2 exterior wall area (aka 1.8 cfm/ft2 @75Pa).",
               "For LargeHotel Mechanical B  - Story Ground, no exterior wall area was found, no infiltration will be added.",
               "For LargeHotel Mechanical B end_b - Story Ground, set infiltration rate to 0.202 cfm/ft2 exterior wall area (aka 1.8 cfm/ft2 @75Pa).",
               "For LargeHotel Mechanical C  - Story Ground, set infiltration rate to 0.202 cfm/ft2 exterior wall area (aka 1.8 cfm/ft2 @75Pa).",
               "For LargeHotel Mechanical C end_b - Story Ground, set infiltration rate to 0.202 cfm/ft2 exterior wall area (aka 1.8 cfm/ft2 @75Pa).",
               "For LargeHotel Retail A  - Story Ground, set infiltration rate to 0.202 cfm/ft2 exterior wall area (aka 1.8 cfm/ft2 @75Pa).",
               "For LargeHotel Retail B  - Story Ground, no exterior wall area was found, no infiltration will be added.",
               "For LargeHotel Retail C  - Story Ground, set infiltration rate to 0.202 cfm/ft2 exterior wall area (aka 1.8 cfm/ft2 @75Pa).",
               "For LargeHotel Storage A  - Story Ground, set infiltration rate to 0.202 cfm/ft2 exterior wall area (aka 1.8 cfm/ft2 @75Pa).",
               "For LargeHotel Storage B  - Story Ground, no exterior wall area was found, no infiltration will be added.",
               "For LargeHotel Storage C  - Story Ground, set infiltration rate to 0.202 cfm/ft2 exterior wall area (aka 1.8 cfm/ft2 @75Pa).",
               "The building has 6 or more effective stories; assuming Traction elevators.",
               "For LargeHotel Banquet - 90.1-2004, floor area = 22402 ft^2.",
               "For LargeHotel Banquet - 90.1-2004, number of spaces = 9.",
               "For LargeHotel Banquet - 90.1-2004, number of people = 1501.",
               "For LargeHotel Cafe - 90.1-2004, floor area = 6357 ft^2.",
               "For LargeHotel Cafe - 90.1-2004, number of spaces = 6.",
               "For LargeHotel Cafe - 90.1-2004, number of people = 426.",
               "For LargeHotel Corridor - 90.1-2004, floor area = 66479 ft^2.",
               "For LargeHotel Corridor - 90.1-2004, number of spaces = 27.",
               "For LargeHotel Corridor - 90.1-2004, number of people = 66.",
               "For LargeHotel GuestRoom - 90.1-2004, floor area = 156969 ft^2.",
               "For LargeHotel GuestRoom - 90.1-2004, number of spaces = 42.",
               "For LargeHotel GuestRoom - 90.1-2004, number of units = 561.2064975485939.",
               "For LargeHotel GuestRoom - 90.1-2004, number of people = 560.",
               "For LargeHotel Kitchen - 90.1-2004, floor area = 3485 ft^2.",
               "For LargeHotel Kitchen - 90.1-2004, number of spaces = 3.",
               "For LargeHotel Kitchen - 90.1-2004, number of people = 17.",
               "For LargeHotel Laundry - 90.1-2004, floor area = 2642 ft^2.",
               "For LargeHotel Laundry - 90.1-2004, number of spaces = 3.",
               "For LargeHotel Laundry - 90.1-2004, number of people = 11.",
               "For LargeHotel Lobby - 90.1-2004, floor area = 44154 ft^2.",
               "For LargeHotel Lobby - 90.1-2004, number of spaces = 12.",
               "For LargeHotel Lobby - 90.1-2004, number of people = 1325.",
               "For LargeHotel Mechanical - 90.1-2004, floor area = 5553 ft^2.",
               "For LargeHotel Mechanical - 90.1-2004, number of spaces = 6.",
               "For LargeHotel Retail - 90.1-2004, floor area = 4902 ft^2.",
               "For LargeHotel Retail - 90.1-2004, number of spaces = 3.",
               "For LargeHotel Retail - 90.1-2004, number of people = 74.",
               "For LargeHotel Storage - 90.1-2004, floor area = 3217 ft^2.",
               "For LargeHotel Storage - 90.1-2004, number of spaces = 3.",
               "For LargeHotel Storage - 90.1-2004, number of people = 6.",
               "For LargeHotel Banquet - 90.1-2004, adding 0.0 passenger elevators at 1 per 75.0 units.",
               "For LargeHotel Banquet - 90.1-2004, adding 0.0 freight/service elevators at 1 per 150.0 units.",
               "For LargeHotel Cafe - 90.1-2004, adding 0.0 passenger elevators at 1 per 75.0 units.",
               "For LargeHotel Cafe - 90.1-2004, adding 0.0 freight/service elevators at 1 per 150.0 units.",
               "For LargeHotel Corridor - 90.1-2004, adding 0.0 passenger elevators at 1 per 75.0 units.",
               "For LargeHotel Corridor - 90.1-2004, adding 0.0 freight/service elevators at 1 per 150.0 units.",
               "For LargeHotel GuestRoom - 90.1-2004, adding 7.5 passenger elevators at 1 per 75.0 units.",
               "For LargeHotel GuestRoom - 90.1-2004, adding 3.7 freight/service elevators at 1 per 150.0 units.",
               "For LargeHotel Kitchen - 90.1-2004, adding 0.0 passenger elevators at 1 per 75.0 units.",
               "For LargeHotel Kitchen - 90.1-2004, adding 0.0 freight/service elevators at 1 per 150.0 units.",
               "For LargeHotel Laundry - 90.1-2004, adding 0.0 passenger elevators at 1 per 75.0 units.",
               "For LargeHotel Laundry - 90.1-2004, adding 0.0 freight/service elevators at 1 per 150.0 units.",
               "For LargeHotel Lobby - 90.1-2004, adding 0.0 passenger elevators at 1 per 75.0 units.",
               "For LargeHotel Lobby - 90.1-2004, adding 0.0 freight/service elevators at 1 per 150.0 units.",
               "For LargeHotel Mechanical - 90.1-2004, adding 0.0 passenger elevators at 1 per 75.0 units.",
               "For LargeHotel Mechanical - 90.1-2004, adding 0.0 freight/service elevators at 1 per 150.0 units.",
               "For LargeHotel Retail - 90.1-2004, adding 0.0 passenger elevators at 1 per 75.0 units.",
[...]
               "For 1 Zone VAV 2: Annual occupied hours = 8082 hr/yr, assuming a 0.15 occupancy threshold.  This schedule will be used as the HVAC operation schedule.",
               "For 1 Zone VAV 2: Motorized OA damper is required because the building has 10 stories, >= the minimum of 3 stories for climate zone , and the system OA intake of 29290 cfm is >= the minimum threshold of 0 cfm.",
               "For 1 Zone VAV 2: Setting motorized OA damper schedule to 1 Zone VAV 2 Occ Sch.",
               "For Building Story 7 ThermalZone: DCV is not required since the occupant density is 50 people/1000 ft2, but the minimum occupant density is 100 people/1000 ft2.",
               "For 1 Zone VAV 2: Optimum start is required since design flow rate of 38915 cfm exceeds the limit of 10000 cfm.",
               "For 1 Zone VAV 2: Optimum start control enabled.",
               "For 1 Zone VAV 3, ERV not required based on 43% OA flow, design supply air flow of 31231cfm, and climate zone .",
               "For 1 Zone VAV 3 Fan: Set fan curve coefficients to reflect control type of 'Single Zone VAV Fan'.",
               "For 1 Zone VAV 3: Single zone controls not applicable because no DX cooling.",
               "For Building Story 8 ThermalZone: DCV is not required since the occupant density is 28 people/1000 ft2, but the minimum occupant density is 100 people/1000 ft2.",
               "For 1 Zone VAV 3: Annual occupied hours = 8760 hr/yr, assuming a 0.15 occupancy threshold.  This schedule will be used as the HVAC operation schedule.",
               "For 1 Zone VAV 3: Motorized OA damper is required because the building has 10 stories, >= the minimum of 3 stories for climate zone , and the system OA intake of 13365 cfm is >= the minimum threshold of 0 cfm.",
               "For 1 Zone VAV 3: Setting motorized OA damper schedule to 1 Zone VAV 3 Occ Sch.",
               "For Building Story 8 ThermalZone: DCV is not required since the occupant density is 28 people/1000 ft2, but the minimum occupant density is 100 people/1000 ft2.",
               "For 1 Zone VAV 3: Optimum start is required since design flow rate of 31231 cfm exceeds the limit of 10000 cfm.",
               "For 1 Zone VAV 3: Optimum start control enabled.",
               "For 1 Zone VAV 4, ERV not required based on 30% OA flow, design supply air flow of 66705cfm, and climate zone .",
               "For 1 Zone VAV 4 Fan: Set fan curve coefficients to reflect control type of 'Single Zone VAV Fan'.",
               "For 1 Zone VAV 4: Single zone controls not applicable because no DX cooling.",
               "For Building Story 9 ThermalZone: DCV is not required since the occupant density is 28 people/1000 ft2, but the minimum occupant density is 100 people/1000 ft2.",
               "For 1 Zone VAV 4: Annual occupied hours = 8499 hr/yr, assuming a 0.15 occupancy threshold.  This schedule will be used as the HVAC operation schedule.",
               "For 1 Zone VAV 4: Motorized OA damper is required because the building has 10 stories, >= the minimum of 3 stories for climate zone , and the system OA intake of 19958 cfm is >= the minimum threshold of 0 cfm.",
               "For 1 Zone VAV 4: Setting motorized OA damper schedule to 1 Zone VAV 4 Occ Sch.",
               "For Building Story 9 ThermalZone: DCV is not required since the occupant density is 28 people/1000 ft2, but the minimum occupant density is 100 people/1000 ft2.",
               "For 1 Zone VAV 4: Optimum start is required since design flow rate of 66705 cfm exceeds the limit of 10000 cfm.",
               "For 1 Zone VAV 4: Optimum start control enabled.",
               "For 1 Zone VAV 1 Fan: motor nameplate = 15HP, motor eff = 91.0%.",
               "For 1 Zone VAV 2 Fan: motor nameplate = 60HP, motor eff = 93.6%.",
               "For 1 Zone VAV 3 Fan: motor nameplate = 50HP, motor eff = 93.0%.",
               "For 1 Zone VAV 4 Fan: motor nameplate = 100HP, motor eff = 94.5%.",
               "For 1 Zone VAV Fan: motor nameplate = 15HP, motor eff = 91.0%.",
               "For Building Story 1 ThermalZone PTAC Fan: motor eff = 29.0%; assumed to represent several < 1 HP motors.",
               "For Building Story 10 ThermalZone PTAC Fan: motor eff = 29.0%; assumed to represent several < 1 HP motors.",
               "For Building Story 2 ThermalZone PTAC Fan: motor eff = 29.0%; assumed to represent several < 1 HP motors.",
               "For Building Story 5 ThermalZone PTAC Fan: motor eff = 29.0%; assumed to represent several < 1 HP motors.",
               "For Building Story 6 ThermalZone PTAC Fan: motor eff = 29.0%; assumed to represent several < 1 HP motors.",
               "For Zone LargeHotel Kitchen A  - Story Ground Exhaust Fan: motor eff = 29.0%; assumed to represent several < 1 HP motors.",
               "For Zone LargeHotel Kitchen B  - Story Ground Exhaust Fan: motor eff = 29.0%; assumed to represent several < 1 HP motors.",
               "For Zone LargeHotel Kitchen C  - Story Ground Exhaust Fan: motor eff = 29.0%; assumed to represent several < 1 HP motors.",
               "For Chilled Water Loop Primary Pump: brake hp = 6.28HP, motor nameplate = 8.0HP, motor eff = 89.5%.",
               "For Condenser Water Loop Constant Pump: brake hp = 24.93HP, motor nameplate = 25.0HP, motor eff = 92.4%.",
               "For LargeHotel Shared Service Water Loop Circulator Pump: brake hp = 0.03HP, motor nameplate = 1.0HP, motor eff = 82.5%.",
               "For Booster Water Loop Pump: brake hp = 0.0HP, motor nameplate = 0.0HP, motor eff = 100.0%.",
               "For Chilled Water Loop Secondary Pump: brake hp = 18.83HP, motor nameplate = 20.0HP, motor eff = 91.0%.",
               "For Hot Water Loop Pump: brake hp = 22.11HP, motor nameplate = 25.0HP, motor eff = 92.4%.",
               "For LargeHotel Kitchen - 90.1-2004 Service Water Loop Water Mains Pressure Driven: brake hp = 0.0HP, motor nameplate = 1.0HP, motor eff = 82.5%.",
               "For LargeHotel Laundry - 90.1-2004 Service Water Loop Water Mains Pressure Driven: brake hp = 0.0HP, motor nameplate = 1.0HP, motor eff = 82.5%.",
               "For Building Story 1 ThermalZone PTAC 1spd DX AC Clg Coil: AirCooled All Other PTAC Capacity = 254kBtu/hr; EER = 9.3",
               "For Building Story 10 ThermalZone PTAC 1spd DX AC Clg Coil: AirCooled All Other PTAC Capacity = 716kBtu/hr; EER = 9.3",
               "For Building Story 2 ThermalZone PTAC 1spd DX AC Clg Coil: AirCooled All Other PTAC Capacity = 484kBtu/hr; EER = 9.3",
               "For Building Story 5 ThermalZone PTAC 1spd DX AC Clg Coil: AirCooled All Other PTAC Capacity = 472kBtu/hr; EER = 9.3",
               "For Building Story 6 ThermalZone PTAC 1spd DX AC Clg Coil: AirCooled All Other PTAC Capacity = 463kBtu/hr; EER = 9.3",
               "For 90.1-2004: 90.1-2004 WaterCooled  Rotary Screw Chiller 0 545tons 0.6kW/ton: WaterCooled  Rotary Screw Capacity = 545tons; COP = 5.5 (0.6kW/ton)",
               "For 90.1-2004: Boiler: Gas Hot Water Capacity = 11186kBtu/hr; Thermal Efficiency = 0.75",
               "For 90.1-2004: 263gal NaturalGas Water Heater - 263kBtu/hr 0.804 Therm Eff; thermal efficiency = 0.804, skin-loss UA = 20Btu/hr",
               "For 90.1-2004: 392gal Electricity Water Heater - 392kBtu/hr 1.0 Therm Eff; thermal efficiency = 1.0, skin-loss UA = 10Btu/hr",
               "For 90.1-2004: 517gal Electricity Water Heater - 517kBtu/hr 1.0 Therm Eff; thermal efficiency = 1.0, skin-loss UA = 12Btu/hr",
               "For 90.1-2004: 6.0gal Electricity Booster Water Heater - 50kBtu/hr 1.0 Therm Eff; thermal efficiency = 1.0, skin-loss UA = 3Btu/hr",
               "For Propeller or Axial TwoSpeed Fan Open Cooling Tower, design water flow = 1547 gpm, minimum performance = 38.2 gpm/hp (nameplate).",
               "For Propeller or Axial TwoSpeed Fan Open Cooling Tower, allowed fan motor nameplate hp = 40.5 hp, fan brake horsepower = 36.5, and fan motor actual power = 39.2 hp (29232 W) at 0.93 motor efficiency.",
               "For 1 Zone VAV 2 ERV: Set sensible and latent effectiveness to 50%.",
               "Finished applying HVAC efficiency standards."
            ],
            "step_initial_condition" : "The building started with 1758 objects.",
            "step_result" : "Success",
            "step_values" : [
               {
                  "name" : "template",
                  "value" : "90.1-2004"
               },
               {
                  "name" : "system_type",
                  "value" : "Inferred"
               },
               {
                  "name" : "hvac_delivery_type",
                  "value" : "Forced Air"
               },
               {
                  "name" : "htg_src",
                  "value" : "NaturalGas"
               },
               {
                  "name" : "clg_src",
                  "value" : "Electricity"
               },
               {
                  "name" : "kitchen_makeup",
                  "value" : "Adjacent"
               },
               {
                  "name" : "exterior_lighting_zone",
                  "value" : "3 - All Other Areas"
               },
               {
                  "name" : "add_constructions",
                  "value" : false
               },
               {
                  "name" : "add_space_type_loads",
                  "value" : false
               },
               {
                  "name" : "add_elevators",
                  "value" : false
               },
               {
                  "name" : "add_exterior_lights",
                  "value" : false
               },
               {
                  "name" : "onsite_parking_fraction",
                  "value" : 1
               },
               {
                  "name" : "add_exhaust",
                  "value" : false
               },
               {
                  "name" : "add_swh",
                  "value" : false
               },
               {
                  "name" : "add_thermostat",
                  "value" : true
               },
               {
                  "name" : "add_hvac",
                  "value" : true
               },
               {
                  "name" : "remove_objects",
                  "value" : false
               },
               {
                  "name" : "use_upstream_args",
                  "value" : false
               },
               {
                  "name" : "enable_dst",
                  "value" : true
               }
            ],
            "step_warnings" : [
               "[openstudio.model.Model] The run completed but had the following severe errors: InitFans: Fan=",
               "[openstudio.standards.AirLoopHVAC] Cannot find economizer limits for 90.1-2004, , assuming no economizer required.",
               "[openstudio.standards.AirLoopHVAC] Cannot find economizer limits for 90.1-2004, , assuming no economizer required.",
               "[openstudio.standards.AirLoopHVAC] Cannot find economizer limits for 90.1-2004, , assuming no economizer required.",
               "[openstudio.standards.AirLoopHVAC] Cannot find economizer limits for 90.1-2004, , assuming no economizer required.",
               "[openstudio.standards.AirLoopHVAC] Cannot find economizer limits for 90.1-2004, , assuming no economizer required."
            ]
         }
      },
      {
         "arguments" : {
            "__SKIP__" : true,
            "r_value" : 10
         },
         "measure_dir_name" : "IncreaseInsulationRValueForExteriorWalls",
         "result" : {
            "completed_at" : "20191231T201054Z",
            "measure_class_name" : "IncreaseInsulationRValueForExteriorWalls",
            "measure_display_name" : "Increase R-value of Insulation for Exterior Walls to a Specific Value",
            "measure_name" : "increase_insulation_r_value_for_exterior_walls",
            "measure_taxonomy" : "Envelope.Opaque",
            "measure_type" : "ModelMeasure",
            "measure_uid" : "3fdf9c39-d305-449b-a4b5-077166af5a67",
            "measure_version_id" : "185d23d1-67c9-435c-97d2-f28e7f80632b",
            "measure_version_modified" : "20191029T231254Z",
            "measure_xml_checksum" : "0F858D9E",
            "started_at" : "20191231T201054Z",
            "stderr" : "",
            "stdout" : "",
            "step_errors" : [],
            "step_files" : [],
            "step_info" : [],
            "step_result" : "Skip",
            "step_values" : [],
            "step_warnings" : []
         }
      },
      {
         "arguments" : {
            "__SKIP__" : true,
            "elecequip_power_reduction_percent" : 20
         },
         "measure_dir_name" : "ReduceElectricEquipmentLoadsByPercentage",
         "result" : {
            "completed_at" : "20191231T201054Z",
            "measure_class_name" : "ReduceElectricEquipmentLoadsByPercentage",
            "measure_display_name" : "Reduce Electric Equipment Loads by Percentage",
            "measure_name" : "reduce_electric_equipment_loads_by_percentage",
            "measure_taxonomy" : "Equipment.Electric Equipment",
            "measure_type" : "ModelMeasure",
            "measure_uid" : "0902e302-70db-4339-99b0-17f08bc93629",
            "measure_version_id" : "7be9778a-f317-46fb-b48a-4159ce1ec158",
            "measure_version_modified" : "20191029T231304Z",
            "measure_xml_checksum" : "F9A5B8F0",
            "started_at" : "20191231T201054Z",
            "stderr" : "",
            "stdout" : "",
            "step_errors" : [],
            "step_files" : [],
            "step_info" : [],
            "step_result" : "Skip",
            "step_values" : [],
            "step_warnings" : []
         }
      },
      {
         "arguments" : {
            "__SKIP__" : true,
            "lighting_power_reduction_percent" : 30
         },
         "measure_dir_name" : "ReduceLightingLoadsByPercentage",
         "result" : {
            "completed_at" : "20191231T201055Z",
            "measure_class_name" : "ReduceLightingLoadsByPercentage",
            "measure_display_name" : "Reduce Lighting Loads by Percentage",
            "measure_name" : "reduce_lighting_loads_by_percentage",
            "measure_taxonomy" : "Electric Lighting.Lighting Equipment",
            "measure_type" : "ModelMeasure",
            "measure_uid" : "791f3404-a28b-4a80-ba3f-e15b339e39ea",
            "measure_version_id" : "1da578d2-2b29-4536-9382-08364c5d5219",
            "measure_version_modified" : "20191029T231304Z",
            "measure_xml_checksum" : "293730A7",
            "started_at" : "20191231T201055Z",
            "stderr" : "",
            "stdout" : "",
            "step_errors" : [],
            "step_files" : [],
            "step_info" : [],
            "step_result" : "Skip",
            "step_values" : [],
            "step_warnings" : []
         }
      },
      {
         "arguments" : {
            "feature_id" : "13",
            "feature_name" : "Hotel 1",
            "feature_type" : "Building"
         },
         "measure_dir_name" : "default_feature_reports",
         "result" : {
            "completed_at" : "20191231T201503Z",
            "measure_class_name" : "DefaultFeatureReports",
            "measure_display_name" : "DefaultFeatureReports",
            "measure_name" : "default_feature_reports",
            "measure_taxonomy" : "Reporting.QAQC",
            "measure_type" : "ReportingMeasure",
            "measure_uid" : "9ee3135a-8070-4408-bfa1-b75fecf9dd4f",
            "measure_version_id" : "803f9d76-a088-489d-88d3-6f3a5ae50d8a",
            "measure_version_modified" : "20191030T020950Z",
            "measure_xml_checksum" : "FB304155",
            "started_at" : "20191231T201425Z",
            "stderr" : "",
            "stdout" : "",
            "step_errors" : [],
            "step_files" : [
               "/Users/tkwasnik/github/urbanopt-example-geojson-reopt-project/run/baseline_scenario/13/010_default_feature_reports/default_feature_reports.json",
               "/Users/tkwasnik/github/urbanopt-example-geojson-reopt-project/run/baseline_scenario/13/010_default_feature_reports/default_feature_reports.csv"
            ],
            "step_final_condition" : "Default Feature Reports generated successfully.",
            "step_info" : [
               "TIMESERIES: Electricity:Facility",
               "KEY VALUES: [\"\"]",
               "!! TIMESERIES NAME: Electricity:Facility AND key_value: ",
               "First timeseries",
               "TIMESERIES: ElectricityProduced:Facility",
               "KEY VALUES: []",
               "!! TIMESERIES NAME: ElectricityProduced:Facility AND key_value: ",
               "Is NOT Initialized",
               "TIMESERIES: Gas:Facility",
               "KEY VALUES: [\"\"]",
               "!! TIMESERIES NAME: Gas:Facility AND key_value: ",
               "Is Initialized",
               "TIMESERIES: DistrictCooling:Facility",
               "KEY VALUES: []",
               "!! TIMESERIES NAME: DistrictCooling:Facility AND key_value: ",
               "Is NOT Initialized",
               "TIMESERIES: DistrictHeating:Facility",
               "KEY VALUES: []",
               "!! TIMESERIES NAME: DistrictHeating:Facility AND key_value: ",
               "Is NOT Initialized",
               "TIMESERIES: District Cooling Chilled Water Rate",
               "KEY VALUES: []",
               "!! TIMESERIES NAME: District Cooling Chilled Water Rate AND key_value: ",
               "Is NOT Initialized",
               "TIMESERIES: District Cooling Mass Flow Rate",
               "KEY VALUES: []",
               "!! TIMESERIES NAME: District Cooling Mass Flow Rate AND key_value: ",
               "Is NOT Initialized",
               "TIMESERIES: District Cooling Inlet Temperature",
               "KEY VALUES: []",
               "!! TIMESERIES NAME: District Cooling Inlet Temperature AND key_value: ",
               "Is NOT Initialized",
               "TIMESERIES: District Cooling Outlet Temperature",
               "KEY VALUES: []",
               "!! TIMESERIES NAME: District Cooling Outlet Temperature AND key_value: ",
               "Is NOT Initialized",
               "TIMESERIES: District Heating Hot Water Rate",
               "KEY VALUES: []",
               "!! TIMESERIES NAME: District Heating Hot Water Rate AND key_value: ",
               "Is NOT Initialized",
               "TIMESERIES: District Heating Mass Flow Rate",
               "KEY VALUES: []",
               "!! TIMESERIES NAME: District Heating Mass Flow Rate AND key_value: ",
               "Is NOT Initialized",
               "TIMESERIES: District Heating Inlet Temperature",
               "KEY VALUES: []",
               "!! TIMESERIES NAME: District Heating Inlet Temperature AND key_value: ",
               "Is NOT Initialized",
               "TIMESERIES: District Heating Outlet Temperature",
               "KEY VALUES: []",
               "!! TIMESERIES NAME: District Heating Outlet Temperature AND key_value: ",
               "Is NOT Initialized",
               "new final_timeseries_names size: 13"
            ],
            "step_result" : "Success",
            "step_values" : [
               {
                  "name" : "feature_id",
                  "value" : "13"
               },
               {
                  "name" : "feature_name",
                  "value" : "Hotel 1"
               },
               {
                  "name" : "feature_type",
                  "value" : "Building"
               },
               {
                  "name" : "reporting_frequency",
                  "value" : "Hourly"
               }
            ],
            "step_warnings" : []
         }
      }
   ],
   "updated_at" : "20191231T201510Z",
   "weather_file" : null
}
