{
   "completed_at" : "20191231T195601Z",
   "completed_status" : "Success",
   "created_at" : "20191231T195534Z",
   "current_step" : 0,
   "eplusout_err" : "Program Version,EnergyPlus, Version 9.1.0-08d2e308bb, YMD=2019.12.31 12:55,\n   ** Warning ** Timestep: Requested number (1) is less than the suggested minimum of 4.\n   **   ~~~   ** Please see entry for Timestep in Input/Output Reference for discussion of considerations.\n   ************* Beginning Zone Sizing Calculations\n   ** Warning ** ProcessScheduleInput: Schedule:Day:Interval=\"177 SPACE(S) OCC SCH DEFAULT\", Blank Schedule Type Limits Name input -- will not be validated.\n   ** Warning ** ProcessScheduleInput: Schedule:Day:Interval=\"177 SPACE(S) OCC SCH SATURDAY\", Blank Schedule Type Limits Name input -- will not be validated.\n   ** Warning ** ProcessScheduleInput: Schedule:Day:Interval=\"177 SPACE(S) OCC SCH SUMMER DESIGN DAY\", Blank Schedule Type Limits Name input -- will not be validated.\n   ** Warning ** ProcessScheduleInput: Schedule:Day:Interval=\"177 SPACE(S) OCC SCH SUNDAY\", Blank Schedule Type Limits Name input -- will not be validated.\n   ** Warning ** ProcessScheduleInput: Schedule:Day:Interval=\"177 SPACE(S) OCC SCH WINTER DESIGN DAY\", Blank Schedule Type Limits Name input -- will not be validated.\n   ** Warning ** ProcessScheduleInput: Schedule:Year=\"ELEVATOR SCHEDULE\", Blank Schedule Type Limits Name input -- will not be validated.\n   ** Warning ** ProcessScheduleInput: Schedule:Constant=\"ALWAYS OFF DISCRETE\", Blank Schedule Type Limits Name input -- will not be validated.\n   ** Warning ** ProcessScheduleInput: Schedule:Constant=\"ALWAYS ON CONTINUOUS\", Blank Schedule Type Limits Name input -- will not be validated.\n   ** Warning ** CheckUsedConstructions: There are 9 nominally unused constructions in input.\n   **   ~~~   ** For explicit details on each unused construction, use Output:Diagnostics,DisplayExtraWarnings;\n   ** Warning ** DetermineShadowingCombinations: There are 4 surfaces which are receiving surfaces and are non-convex.\n   **   ~~~   ** ...Shadowing values may be inaccurate. Check .shd report file for more surface shading details\n   **   ~~~   ** ...Add Output:Diagnostics,DisplayExtraWarnings; to see individual warnings for each surface.\n   ** Warning ** DeterminePolygonOverlap: Too many figures [>15000]  detected in an overlap calculation. Use Output:Diagnostics,DisplayExtraWarnings; for more details.\n   ** Warning ** Calculated design heating load for zone=BUILDING STORY 7 THERMALZONE is zero.\n   **   ~~~   ** Check Sizing:Zone and ZoneControl:Thermostat inputs.\n   ************* Beginning System Sizing Calculations\n   ** Warning ** Since Zone Minimum Air Flow Input Method = CONSTANT, input for Fixed Minimum Air Flow Rate will be ignored.\n   **   ~~~   ** Occurs in AirTerminal:SingleDuct:VAV:Reheat = BUILDING STORY 1 THERMALZONE VAV TERMINAL\n   ** Warning ** Since Damper Heating Action = NORMAL, input for Maximum Flow Fraction During Reheat will be ignored.\n   **   ~~~   ** Occurs in AirTerminal:SingleDuct:VAV:Reheat = BUILDING STORY 1 THERMALZONE VAV TERMINAL\n   ** Warning ** Since Zone Minimum Air Flow Input Method = CONSTANT, input for Fixed Minimum Air Flow Rate will be ignored.\n   **   ~~~   ** Occurs in AirTerminal:SingleDuct:VAV:Reheat = BUILDING STORY 10 THERMALZONE VAV TERMINAL\n   ** Warning ** Since Damper Heating Action = NORMAL, input for Maximum Flow Fraction During Reheat will be ignored.\n   **   ~~~   ** Occurs in AirTerminal:SingleDuct:VAV:Reheat = BUILDING STORY 10 THERMALZONE VAV TERMINAL\n   ** Warning ** Since Zone Minimum Air Flow Input Method = CONSTANT, input for Fixed Minimum Air Flow Rate will be ignored.\n   **   ~~~   ** Occurs in AirTerminal:SingleDuct:VAV:Reheat = BUILDING STORY 2 THERMALZONE VAV TERMINAL\n   ** Warning ** Since Damper Heating Action = NORMAL, input for Maximum Flow Fraction During Reheat will be ignored.\n   **   ~~~   ** Occurs in AirTerminal:SingleDuct:VAV:Reheat = BUILDING STORY 2 THERMALZONE VAV TERMINAL\n   ** Warning ** Since Zone Minimum Air Flow Input Method = CONSTANT, input for Fixed Minimum Air Flow Rate will be ignored.\n   **   ~~~   ** Occurs in AirTerminal:SingleDuct:VAV:Reheat = BUILDING STORY 3 THERMALZONE VAV TERMINAL\n   ** Warning ** Since Damper Heating Action = NORMAL, input for Maximum Flow Fraction During Reheat will be ignored.\n   **   ~~~   ** Occurs in AirTerminal:SingleDuct:VAV:Reheat = BUILDING STORY 3 THERMALZONE VAV TERMINAL\n   ** Warning ** Since Zone Minimum Air Flow Input Method = CONSTANT, input for Fixed Minimum Air Flow Rate will be ignored.\n   **   ~~~   ** Occurs in AirTerminal:SingleDuct:VAV:Reheat = BUILDING STORY 4 THERMALZONE VAV TERMINAL\n   ** Warning ** Since Damper Heating Action = NORMAL, input for Maximum Flow Fraction During Reheat will be ignored.\n   **   ~~~   ** Occurs in AirTerminal:SingleDuct:VAV:Reheat = BUILDING STORY 4 THERMALZONE VAV TERMINAL\n   ** Warning ** Since Zone Minimum Air Flow Input Method = CONSTANT, input for Fixed Minimum Air Flow Rate will be ignored.\n   **   ~~~   ** Occurs in AirTerminal:SingleDuct:VAV:Reheat = BUILDING STORY 5 THERMALZONE VAV TERMINAL\n   ** Warning ** Since Damper Heating Action = NORMAL, input for Maximum Flow Fraction During Reheat will be ignored.\n   **   ~~~   ** Occurs in AirTerminal:SingleDuct:VAV:Reheat = BUILDING STORY 5 THERMALZONE VAV TERMINAL\n   ** Warning ** Since Zone Minimum Air Flow Input Method = CONSTANT, input for Fixed Minimum Air Flow Rate will be ignored.\n   **   ~~~   ** Occurs in AirTerminal:SingleDuct:VAV:Reheat = BUILDING STORY 6 THERMALZONE VAV TERMINAL\n   ** Warning ** Since Damper Heating Action = NORMAL, input for Maximum Flow Fraction During Reheat will be ignored.\n   **   ~~~   ** Occurs in AirTerminal:SingleDuct:VAV:Reheat = BUILDING STORY 6 THERMALZONE VAV TERMINAL\n   ** Warning ** Since Zone Minimum Air Flow Input Method = CONSTANT, input for Fixed Minimum Air Flow Rate will be ignored.\n   **   ~~~   ** Occurs in AirTerminal:SingleDuct:VAV:Reheat = BUILDING STORY 7 THERMALZONE VAV TERMINAL\n   ** Warning ** Since Damper Heating Action = NORMAL, input for Maximum Flow Fraction During Reheat will be ignored.\n   **   ~~~   ** Occurs in AirTerminal:SingleDuct:VAV:Reheat = BUILDING STORY 7 THERMALZONE VAV TERMINAL\n   ** Warning ** Since Zone Minimum Air Flow Input Method = CONSTANT, input for Fixed Minimum Air Flow Rate will be ignored.\n   **   ~~~   ** Occurs in AirTerminal:SingleDuct:VAV:Reheat = BUILDING STORY 8 THERMALZONE VAV TERMINAL\n   ** Warning ** Since Damper Heating Action = NORMAL, input for Maximum Flow Fraction During Reheat will be ignored.\n   **   ~~~   ** Occurs in AirTerminal:SingleDuct:VAV:Reheat = BUILDING STORY 8 THERMALZONE VAV TERMINAL\n   ** Warning ** Since Zone Minimum Air Flow Input Method = CONSTANT, input for Fixed Minimum Air Flow Rate will be ignored.\n   **   ~~~   ** Occurs in AirTerminal:SingleDuct:VAV:Reheat = BUILDING STORY 9 THERMALZONE VAV TERMINAL\n   ** Warning ** Since Damper Heating Action = NORMAL, input for Maximum Flow Fraction During Reheat will be ignored.\n   **   ~~~   ** Occurs in AirTerminal:SingleDuct:VAV:Reheat = BUILDING STORY 9 THERMALZONE VAV TERMINAL\n   ************* Beginning Plant Sizing Calculations\n   ** Severe  ** InitFans: Fan=[Fan:ZoneExhaust,ZONE OUTPATIENT ANESTHESIA A  - STORY GROUND EXHAUST FAN] is not on any ZoneHVAC:EquipmentList.  It will not be simulated.\n   ** Severe  ** InitFans: Fan=[Fan:ZoneExhaust,ZONE OUTPATIENT ANESTHESIA B  - STORY GROUND EXHAUST FAN] is not on any ZoneHVAC:EquipmentList.  It will not be simulated.\n   ** Severe  ** InitFans: Fan=[Fan:ZoneExhaust,ZONE OUTPATIENT ANESTHESIA C  - STORY GROUND EXHAUST FAN] is not on any ZoneHVAC:EquipmentList.  It will not be simulated.\n   ** Severe  ** InitFans: Fan=[Fan:ZoneExhaust,ZONE OUTPATIENT MRI A  - STORY GROUND EXHAUST FAN] is not on any ZoneHVAC:EquipmentList.  It will not be simulated.\n   ** Severe  ** InitFans: Fan=[Fan:ZoneExhaust,ZONE OUTPATIENT MRI B  - STORY GROUND EXHAUST FAN] is not on any ZoneHVAC:EquipmentList.  It will not be simulated.\n   ** Severe  ** InitFans: Fan=[Fan:ZoneExhaust,ZONE OUTPATIENT MRI C  - STORY GROUND EXHAUST FAN] is not on any ZoneHVAC:EquipmentList.  It will not be simulated.\n   ** Severe  ** InitFans: Fan=[Fan:ZoneExhaust,ZONE OUTPATIENT MRI_CONTROL A  - STORY GROUND EXHAUST FAN] is not on any ZoneHVAC:EquipmentList.  It will not be simulated.\n   ** Severe  ** InitFans: Fan=[Fan:ZoneExhaust,ZONE OUTPATIENT MRI_CONTROL B  - STORY GROUND EXHAUST FAN] is not on any ZoneHVAC:EquipmentList.  It will not be simulated.\n   ** Severe  ** InitFans: Fan=[Fan:ZoneExhaust,ZONE OUTPATIENT MRI_CONTROL C  - STORY GROUND EXHAUST FAN] is not on any ZoneHVAC:EquipmentList.  It will not be simulated.\n   ** Severe  ** InitFans: Fan=[Fan:ZoneExhaust,ZONE OUTPATIENT SOIL WORK A  - STORY GROUND EXHAUST FAN] is not on any ZoneHVAC:EquipmentList.  It will not be simulated.\n   ** Severe  ** InitFans: Fan=[Fan:ZoneExhaust,ZONE OUTPATIENT SOIL WORK B  - STORY GROUND EXHAUST FAN] is not on any ZoneHVAC:EquipmentList.  It will not be simulated.\n   ** Severe  ** InitFans: Fan=[Fan:ZoneExhaust,ZONE OUTPATIENT SOIL WORK C  - STORY GROUND EXHAUST FAN] is not on any ZoneHVAC:EquipmentList.  It will not be simulated.\n   ** Severe  ** InitFans: Fan=[Fan:ZoneExhaust,ZONE OUTPATIENT TOILET A  - STORY MID EXHAUST FAN] is not on any ZoneHVAC:EquipmentList.  It will not be simulated.\n   ** Severe  ** InitFans: Fan=[Fan:ZoneExhaust,ZONE OUTPATIENT TOILET A END_A - STORY MID EXHAUST FAN] is not on any ZoneHVAC:EquipmentList.  It will not be simulated.\n   ** Severe  ** InitFans: Fan=[Fan:ZoneExhaust,ZONE OUTPATIENT TOILET B  - STORY MID EXHAUST FAN] is not on any ZoneHVAC:EquipmentList.  It will not be simulated.\n   ** Severe  ** InitFans: Fan=[Fan:ZoneExhaust,ZONE OUTPATIENT TOILET B END_A - STORY MID EXHAUST FAN] is not on any ZoneHVAC:EquipmentList.  It will not be simulated.\n   ** Severe  ** InitFans: Fan=[Fan:ZoneExhaust,ZONE OUTPATIENT TOILET C  - STORY MID EXHAUST FAN] is not on any ZoneHVAC:EquipmentList.  It will not be simulated.\n   ** Severe  ** InitFans: Fan=[Fan:ZoneExhaust,ZONE OUTPATIENT TOILET C END_A - STORY MID EXHAUST FAN] is not on any ZoneHVAC:EquipmentList.  It will not be simulated.\n   ** Warning ** Missing temperature setpoint for LeavingSetpointModulated mode Boiler named BOILER\n   **   ~~~   **   A temperature setpoint is needed at the outlet node of a boiler in variable flow mode, use a SetpointManager\n   **   ~~~   **   The overall loop setpoint will be assumed for Boiler. The simulation continues ... \n   ** Warning ** Output:Meter: invalid Key Name=\"DISTRICTCOOLING:FACILITY\" - not found.\n   ** Warning ** Output:Meter: invalid Key Name=\"DISTRICTHEATING:FACILITY\" - not found.\n   ** Warning ** Output:Meter:MeterFileOnly requested for \"Electricity:Facility\" (TimeStep), already on \"Output:Meter\". Will report to both eplusout.eso and eplusout.mtr\n   ************* Testing Individual Branch Integrity\n   ************* All Branches passed integrity testing\n   ************* Testing Individual Supply Air Path Integrity\n   ************* All Supply Air Paths passed integrity testing\n   ************* Testing Individual Return Air Path Integrity\n   ************* All Return Air Paths passed integrity testing\n   ** Severe  ** Node Connection Error, Node=\"ZONE OUTPATIENT ANESTHESIA A  - STORY GROUND EXHAUST FAN INLET AIR NODE\", Inlet node did not find an appropriate matching \"outlet\" node.\n   **   ~~~   ** If this is an outdoor air inlet node, it must be listed in an OutdoorAir:Node or OutdoorAir:NodeList object.\n   **   ~~~   ** Reference Object=FAN:ZONEEXHAUST, Name=ZONE OUTPATIENT ANESTHESIA A  - STORY GROUND EXHAUST FAN\n   ** Severe  ** Node Connection Error, Node=\"ZONE OUTPATIENT ANESTHESIA B  - STORY GROUND EXHAUST FAN INLET AIR NODE\", Inlet node did not find an appropriate matching \"outlet\" node.\n   **   ~~~   ** If this is an outdoor air inlet node, it must be listed in an OutdoorAir:Node or OutdoorAir:NodeList object.\n   **   ~~~   ** Reference Object=FAN:ZONEEXHAUST, Name=ZONE OUTPATIENT ANESTHESIA B  - STORY GROUND EXHAUST FAN\n   ** Severe  ** Node Connection Error, Node=\"ZONE OUTPATIENT ANESTHESIA C  - STORY GROUND EXHAUST FAN INLET AIR NODE\", Inlet node did not find an appropriate matching \"outlet\" node.\n   **   ~~~   ** If this is an outdoor air inlet node, it must be listed in an OutdoorAir:Node or OutdoorAir:NodeList object.\n   **   ~~~   ** Reference Object=FAN:ZONEEXHAUST, Name=ZONE OUTPATIENT ANESTHESIA C  - STORY GROUND EXHAUST FAN\n   ** Severe  ** Node Connection Error, Node=\"ZONE OUTPATIENT MRI A  - STORY GROUND EXHAUST FAN INLET AIR NODE\", Inlet node did not find an appropriate matching \"outlet\" node.\n   **   ~~~   ** If this is an outdoor air inlet node, it must be listed in an OutdoorAir:Node or OutdoorAir:NodeList object.\n   **   ~~~   ** Reference Object=FAN:ZONEEXHAUST, Name=ZONE OUTPATIENT MRI A  - STORY GROUND EXHAUST FAN\n   ** Severe  ** Node Connection Error, Node=\"ZONE OUTPATIENT MRI B  - STORY GROUND EXHAUST FAN INLET AIR NODE\", Inlet node did not find an appropriate matching \"outlet\" node.\n   **   ~~~   ** If this is an outdoor air inlet node, it must be listed in an OutdoorAir:Node or OutdoorAir:NodeList object.\n   **   ~~~   ** Reference Object=FAN:ZONEEXHAUST, Name=ZONE OUTPATIENT MRI B  - STORY GROUND EXHAUST FAN\n   ** Severe  ** Node Connection Error, Node=\"ZONE OUTPATIENT MRI C  - STORY GROUND EXHAUST FAN INLET AIR NODE\", Inlet node did not find an appropriate matching \"outlet\" node.\n   **   ~~~   ** If this is an outdoor air inlet node, it must be listed in an OutdoorAir:Node or OutdoorAir:NodeList object.\n   **   ~~~   ** Reference Object=FAN:ZONEEXHAUST, Name=ZONE OUTPATIENT MRI C  - STORY GROUND EXHAUST FAN\n   ** Severe  ** Node Connection Error, Node=\"ZONE OUTPATIENT MRI_CONTROL A  - STORY GROUND EXHAUST FAN INLET AIR NODE\", Inlet node did not find an appropriate matching \"outlet\" node.\n   **   ~~~   ** If this is an outdoor air inlet node, it must be listed in an OutdoorAir:Node or OutdoorAir:NodeList object.\n   **   ~~~   ** Reference Object=FAN:ZONEEXHAUST, Name=ZONE OUTPATIENT MRI_CONTROL A  - STORY GROUND EXHAUST FAN\n   ** Severe  ** Node Connection Error, Node=\"ZONE OUTPATIENT MRI_CONTROL B  - STORY GROUND EXHAUST FAN INLET AIR NODE\", Inlet node did not find an appropriate matching \"outlet\" node.\n   **   ~~~   ** If this is an outdoor air inlet node, it must be listed in an OutdoorAir:Node or OutdoorAir:NodeList object.\n   **   ~~~   ** Reference Object=FAN:ZONEEXHAUST, Name=ZONE OUTPATIENT MRI_CONTROL B  - STORY GROUND EXHAUST FAN\n   ** Severe  ** Node Connection Error, Node=\"ZONE OUTPATIENT MRI_CONTROL C  - STORY GROUND EXHAUST FAN INLET AIR NODE\", Inlet node did not find an appropriate matching \"outlet\" node.\n   **   ~~~   ** If this is an outdoor air inlet node, it must be listed in an OutdoorAir:Node or OutdoorAir:NodeList object.\n   **   ~~~   ** Reference Object=FAN:ZONEEXHAUST, Name=ZONE OUTPATIENT MRI_CONTROL C  - STORY GROUND EXHAUST FAN\n   ** Severe  ** Node Connection Error, Node=\"ZONE OUTPATIENT SOIL WORK A  - STORY GROUND EXHAUST FAN INLET AIR NODE\", Inlet node did not find an appropriate matching \"outlet\" node.\n   **   ~~~   ** If this is an outdoor air inlet node, it must be listed in an OutdoorAir:Node or OutdoorAir:NodeList object.\n   **   ~~~   ** Reference Object=FAN:ZONEEXHAUST, Name=ZONE OUTPATIENT SOIL WORK A  - STORY GROUND EXHAUST FAN\n   ** Severe  ** Node Connection Error, Node=\"ZONE OUTPATIENT SOIL WORK B  - STORY GROUND EXHAUST FAN INLET AIR NODE\", Inlet node did not find an appropriate matching \"outlet\" node.\n   **   ~~~   ** If this is an outdoor air inlet node, it must be listed in an OutdoorAir:Node or OutdoorAir:NodeList object.\n   **   ~~~   ** Reference Object=FAN:ZONEEXHAUST, Name=ZONE OUTPATIENT SOIL WORK B  - STORY GROUND EXHAUST FAN\n   ** Severe  ** Node Connection Error, Node=\"ZONE OUTPATIENT SOIL WORK C  - STORY GROUND EXHAUST FAN INLET AIR NODE\", Inlet node did not find an appropriate matching \"outlet\" node.\n   **   ~~~   ** If this is an outdoor air inlet node, it must be listed in an OutdoorAir:Node or OutdoorAir:NodeList object.\n   **   ~~~   ** Reference Object=FAN:ZONEEXHAUST, Name=ZONE OUTPATIENT SOIL WORK C  - STORY GROUND EXHAUST FAN\n   ** Severe  ** Node Connection Error, Node=\"ZONE OUTPATIENT TOILET A  - STORY MID EXHAUST FAN INLET AIR NODE\", Inlet node did not find an appropriate matching \"outlet\" node.\n   **   ~~~   ** If this is an outdoor air inlet node, it must be listed in an OutdoorAir:Node or OutdoorAir:NodeList object.\n   **   ~~~   ** Reference Object=FAN:ZONEEXHAUST, Name=ZONE OUTPATIENT TOILET A  - STORY MID EXHAUST FAN\n   ** Severe  ** Node Connection Error, Node=\"ZONE OUTPATIENT TOILET A END_A - STORY MID EXHAUST FAN INLET AIR NODE\", Inlet node did not find an appropriate matching \"outlet\" node.\n   **   ~~~   ** If this is an outdoor air inlet node, it must be listed in an OutdoorAir:Node or OutdoorAir:NodeList object.\n   **   ~~~   ** Reference Object=FAN:ZONEEXHAUST, Name=ZONE OUTPATIENT TOILET A END_A - STORY MID EXHAUST FAN\n   ** Severe  ** Node Connection Error, Node=\"ZONE OUTPATIENT TOILET B  - STORY MID EXHAUST FAN INLET AIR NODE\", Inlet node did not find an appropriate matching \"outlet\" node.\n   **   ~~~   ** If this is an outdoor air inlet node, it must be listed in an OutdoorAir:Node or OutdoorAir:NodeList object.\n   **   ~~~   ** Reference Object=FAN:ZONEEXHAUST, Name=ZONE OUTPATIENT TOILET B  - STORY MID EXHAUST FAN\n   ** Severe  ** Node Connection Error, Node=\"ZONE OUTPATIENT TOILET B END_A - STORY MID EXHAUST FAN INLET AIR NODE\", Inlet node did not find an appropriate matching \"outlet\" node.\n   **   ~~~   ** If this is an outdoor air inlet node, it must be listed in an OutdoorAir:Node or OutdoorAir:NodeList object.\n   **   ~~~   ** Reference Object=FAN:ZONEEXHAUST, Name=ZONE OUTPATIENT TOILET B END_A - STORY MID EXHAUST FAN\n   ** Severe  ** Node Connection Error, Node=\"ZONE OUTPATIENT TOILET C  - STORY MID EXHAUST FAN INLET AIR NODE\", Inlet node did not find an appropriate matching \"outlet\" node.\n   **   ~~~   ** If this is an outdoor air inlet node, it must be listed in an OutdoorAir:Node or OutdoorAir:NodeList object.\n   **   ~~~   ** Reference Object=FAN:ZONEEXHAUST, Name=ZONE OUTPATIENT TOILET C  - STORY MID EXHAUST FAN\n   ** Severe  ** Node Connection Error, Node=\"ZONE OUTPATIENT TOILET C END_A - STORY MID EXHAUST FAN INLET AIR NODE\", Inlet node did not find an appropriate matching \"outlet\" node.\n   **   ~~~   ** If this is an outdoor air inlet node, it must be listed in an OutdoorAir:Node or OutdoorAir:NodeList object.\n   **   ~~~   ** Reference Object=FAN:ZONEEXHAUST, Name=ZONE OUTPATIENT TOILET C END_A - STORY MID EXHAUST FAN\n   ************* There were 18 node connection errors noted.\n   ************* Beginning Simulation\n   ** Warning ** Output:Table:Monthly requested with SimulationControl Run Simulation for Weather File Run Periods set to No so Output:Table:Monthly will not be generated\n   ** Warning ** Plant Loop: CONDENSER WATER LOOP Demand Side is storing excess heat the majority of the time.\n   ** Warning ** Plant Loop: CONDENSER WATER LOOP Supply Side is storing excess heat the majority of the time.\n   ************* Simulation Error Summary *************\n   ************* There are 8 unused objects in input.\n   ************* Use Output:Diagnostics,DisplayUnusedObjects; to see them.\n   ************* There are 10 unused schedules in input.\n   ************* There are 11 unused week schedules in input.\n   ************* There are 24 unused day schedules in input.\n   ************* Use Output:Diagnostics,DisplayUnusedSchedules; to see them.\n   *************\n   ************* ===== Final Error Summary =====\n   ************* The following error categories occurred.  Consider correcting or noting.\n   ************* Node Connection Errors\n   ************* ..Node connection errors are often caused by spelling mistakes in a node name field.\n   ************* ..To track down the problem, search the idf file for each node name listed to see if it\n   ************* ..occurs in the expected input fields.\n   ************* Nominally Unused Constructions\n   ************* ..The nominally unused constructions warning is provided to alert you to potential conditions that can cause\n   ************* ..extra time during simulation. Each construction is calculated by the algorithm indicated in the HeatBalanceAlgorithm\n   ************* ..object. You may remove the constructions indicated (when you use the DisplayExtraWarnings option).\n   *************\n   ************* EnergyPlus Warmup Error Summary. During Warmup: 0 Warning; 0 Severe Errors.\n   ************* EnergyPlus Sizing Error Summary. During Sizing: 31 Warning; 0 Severe Errors.\n   ************* EnergyPlus Completed Successfully-- 43 Warning; 36 Severe Errors; Elapsed Time=00hr 00min 13.55sec\n",
   "hash" : "12F77B57",
   "seed_file" : "in.osm",
   "started_at" : "20191231T195543Z",
   "steps" : [],
   "updated_at" : "20191231T195601Z",
   "weather_file" : "in.epw"
}
