Program Version,EnergyPlus, Version 9.1.0-08d2e308bb, YMD=2019.12.31 13:10
! <Version>, Version ID
 Version, 9.1
! <Timesteps per Hour>, #TimeSteps, Minutes per TimeStep {minutes}
 Timesteps per Hour,  1, 60
! <System Convergence Limits>, Minimum System TimeStep {minutes}, Max HVAC Iterations, Minimum Plant Iterations, Maximum Plant Iterations
 System Convergence Limits, 1, 20, 2, 8
! <Simulation Control>, Do Zone Sizing, Do System Sizing, Do Plant Sizing, Do Design Days, Do Weather Simulation, Do HVAC Sizing Simulation
 Simulation Control, Yes, Yes, Yes, Yes, No, No
! <Output Reporting Tolerances>, Tolerance for Time Heating Setpoint Not Met, Tolerance for Zone Cooling Setpoint Not Met Time
 Output Reporting Tolerances, 0.200, 0.200, 
! <Site:GroundTemperature:BuildingSurface>,Jan{C},Feb{C},Mar{C},Apr{C},May{C},Jun{C},Jul{C},Aug{C},Sep{C},Oct{C},Nov{C},Dec{C}
 Site:GroundTemperature:BuildingSurface,  19.74,  19.69,  19.85,  20.06,  20.27,  20.46,  20.61,  20.65,  20.60,  20.38,  20.19,  19.90
! <Site:GroundTemperature:FCfactorMethod>,Jan{C},Feb{C},Mar{C},Apr{C},May{C},Jun{C},Jul{C},Aug{C},Sep{C},Oct{C},Nov{C},Dec{C}
 Site:GroundTemperature:FCfactorMethod,  -2.87,  -0.64,   3.71,   7.83,  15.62,  19.72,  20.85,  18.77,  13.96,   7.98,   2.08,  -1.81
! <Site:GroundTemperature:Shallow>,Jan{C},Feb{C},Mar{C},Apr{C},May{C},Jun{C},Jul{C},Aug{C},Sep{C},Oct{C},Nov{C},Dec{C}
 Site:GroundTemperature:Shallow,  13.00,  13.00,  13.00,  13.00,  13.00,  13.00,  13.00,  13.00,  13.00,  13.00,  13.00,  13.00
! <Site:GroundTemperature:Deep>,Jan{C},Feb{C},Mar{C},Apr{C},May{C},Jun{C},Jul{C},Aug{C},Sep{C},Oct{C},Nov{C},Dec{C}
 Site:GroundTemperature:Deep,  16.00,  16.00,  16.00,  16.00,  16.00,  16.00,  16.00,  16.00,  16.00,  16.00,  16.00,  16.00
! <Site:GroundReflectance>,Jan{dimensionless},Feb{dimensionless},Mar{dimensionless},Apr{dimensionless},May{dimensionless},Jun{dimensionless},Jul{dimensionless},Aug{dimensionless},Sep{dimensionless},Oct{dimensionless},Nov{dimensionless},Dec{dimensionless}
 Site:GroundReflectance,  0.20,  0.20,  0.20,  0.20,  0.20,  0.20,  0.20,  0.20,  0.20,  0.20,  0.20,  0.20
! <Site:GroundReflectance:SnowModifier>, Normal, Daylighting {dimensionless}
 Site:GroundReflectance:SnowModifier,   1.000,   1.000
! <Site:GroundReflectance:Snow>,Jan{dimensionless},Feb{dimensionless},Mar{dimensionless},Apr{dimensionless},May{dimensionless},Jun{dimensionless},Jul{dimensionless},Aug{dimensionless},Sep{dimensionless},Oct{dimensionless},Nov{dimensionless},Dec{dimensionless}
 Site:GroundReflectance:Snow,  0.20,  0.20,  0.20,  0.20,  0.20,  0.20,  0.20,  0.20,  0.20,  0.20,  0.20,  0.20
! <Site:GroundReflectance:Snow:Daylighting>,Jan{dimensionless},Feb{dimensionless},Mar{dimensionless},Apr{dimensionless},May{dimensionless},Jun{dimensionless},Jul{dimensionless},Aug{dimensionless},Sep{dimensionless},Oct{dimensionless},Nov{dimensionless},Dec{dimensionless}
 Site:GroundReflectance:Snow:Daylighting,  0.20,  0.20,  0.20,  0.20,  0.20,  0.20,  0.20,  0.20,  0.20,  0.20,  0.20,  0.20
! <Environment:Weather Station>,Wind Sensor Height Above Ground {m},Wind Speed Profile Exponent {},Wind Speed Profile Boundary Layer Thickness {m},Air Temperature Sensor Height Above Ground {m},Wind Speed Modifier Coefficient-Internal,Temperature Modifier Coefficient-Internal
Environment:Weather Station,10.000,0.140,270.000,1.500,1.586,9.750E-003
! <Site:Location>, Location Name, Latitude {N+/S- Deg}, Longitude {E+/W- Deg},  Time Zone Number {GMT+/-}, Elevation {m},  Standard Pressure at Elevation {Pa}, Standard RhoAir at Elevation
Site:Location,Buffalo Niagara Intl Ap NY USA TMY3 WMO#=725280,42.93,-78.73,-5.00,215.00,98769,1.1739
! <Site Water Mains Temperature Information>,Calculation Method{},Water Mains Temperature Schedule Name{},Annual Average Outdoor Air Temperature{C},Maximum Difference In Monthly Average Outdoor Air Temperatures{deltaC},Fixed Default Water Mains Temperature{C}
Site Water Mains Temperature Information,Correlation,NA,8.97,26.20,NA
! <Building Information>, Building Name,North Axis {deg},Terrain,  Loads Convergence Tolerance Value,Temperature Convergence Tolerance Value,  Solar Distribution,Maximum Number of Warmup Days,Minimum Number of Warmup Days
 Building Information,Hotel 1,0.000,City,4.00000E-002,0.40000,FullExterior,25,6
! <Inside Convection Algorithm>, Algorithm {Simple | TARP | CeilingDiffuser | AdaptiveConvectionAlgorithm}
Inside Convection Algorithm,TARP
! <Outside Convection Algorithm>, Algorithm {SimpleCombined | TARP | MoWitt | DOE-2 | AdaptiveConvectionAlgorithm}
Outside Convection Algorithm,DOE-2
! <Sky Radiance Distribution>, Value {Anisotropic}
Sky Radiance Distribution,Anisotropic
! <Zone Air Solution Algorithm>, Value {ThirdOrderBackwardDifference | AnalyticalSolution | EulerMethod}
 Zone Air Solution Algorithm, ThirdOrderBackwardDifference
! <Zone Air Carbon Dioxide Balance Simulation>, Simulation {Yes/No}, Carbon Dioxide Concentration
 Zone Air Carbon Dioxide Balance Simulation, No,N/A
! <Zone Air Generic Contaminant Balance Simulation>, Simulation {Yes/No}, Generic Contaminant Concentration
 Zone Air Generic Contaminant Balance Simulation, No,N/A
! <Zone Air Mass Flow Balance Simulation>, Enforce Mass Balance, Adjust Zone Mixing, Adjust Zone Infiltration {AddInfiltration | AdjustInfiltration | None}, Infiltration Zones {MixingSourceZonesOnly | AllZones}
 Zone Air Mass Flow Balance Simulation, No,N/A,N/A,N/A
! <HVACSystemRootFindingAlgorithm>, Value {RegulaFalsi | Bisection | BisectionThenRegulaFalsi | RegulaFalsiThenBisection}
 HVACSystemRootFindingAlgorithm, RegulaFalsi
! <Environment:Site Atmospheric Variation>,Wind Speed Profile Exponent {},Wind Speed Profile Boundary Layer Thickness {m},Air Temperature Gradient Coefficient {K/m}
Environment:Site Atmospheric Variation,0.330,460.000,6.500000E-003
! <Surface Geometry>,Starting Corner,Vertex Input Direction,Coordinate System,Daylight Reference Point Coordinate System,Rectangular (Simple) Surface Coordinate System
 Surface Geometry,UpperLeftCorner,Counterclockwise,RelativeCoordinateSystem,RelativeCoordinateSystem,RelativeToZoneOrigin
! <Surface Heat Transfer Algorithm>, Value {CTF - ConductionTransferFunction | EMPD - MoisturePenetrationDepthConductionTransferFunction | CondFD - ConductionFiniteDifference | HAMT - CombinedHeatAndMoistureFiniteElement} - Description,Inside Surface Max Temperature Limit{C}, Surface Convection Coefficient Lower Limit {W/m2-K}, Surface Convection Coefficient Upper Limit {W/m2-K}
Surface Heat Transfer Algorithm, CTF - ConductionTransferFunction,200,0.10,1000.0
! <Shading Summary>, Number of Fixed Detached Shades, Number of Building Detached Shades, Number of Attached Shades
 Shading Summary,0,12,0
! <Zone Summary>, Number of Zones, Number of Zone Surfaces, Number of SubSurfaces
 Zone Summary,10,100,40
! <Zone Information>,Zone Name,North Axis {deg},Origin X-Coordinate {m},Origin Y-Coordinate {m},Origin Z-Coordinate {m},Centroid X-Coordinate {m},Centroid Y-Coordinate {m},Centroid Z-Coordinate {m},Type,Zone Multiplier,Zone List Multiplier,Minimum X {m},Maximum X {m},Minimum Y {m},Maximum Y {m},Minimum Z {m},Maximum Z {m},Ceiling Height {m},Volume {m3},Zone Inside Convection Algorithm {Simple-Detailed-CeilingDiffuser-TrombeWall},Zone Outside Convection Algorithm {Simple-Detailed-Tarp-MoWitt-DOE-2-BLAST}, Floor Area {m2},Exterior Gross Wall Area {m2},Exterior Net Wall Area {m2},Exterior Window Area {m2}, Number of Surfaces, Number of SubSurfaces, Number of Shading SubSurfaces,  Part of Total Building Area
 Zone Information, BUILDING STORY 1 THERMALZONE,0.0,0.00,0.00,0.00,33.23,35.60,1.50,1,1,1,8.57E-011,66.46,2.52E-005,71.19,0.00,3.00,3.00,8807.05,TARP,DOE-2,2935.68,651.86,456.30,195.56,6,4,0,Yes
 Zone Information, BUILDING STORY 10 THERMALZONE,0.0,0.00,0.00,0.00,33.23,35.60,28.50,1,1,1,8.57E-011,66.46,2.52E-005,71.19,27.00,30.00,3.00,8807.05,TARP,DOE-2,2935.68,651.86,456.30,195.56,6,4,0,Yes
 Zone Information, BUILDING STORY 2 THERMALZONE,0.0,0.00,0.00,0.00,33.23,35.60,4.50,1,1,1,8.57E-011,66.46,2.52E-005,71.19,3.00,6.00,3.00,8807.05,TARP,DOE-2,2935.68,651.86,456.30,195.56,6,4,0,Yes
 Zone Information, BUILDING STORY 3 THERMALZONE,0.0,0.00,0.00,0.00,33.23,35.60,7.50,1,1,1,8.57E-011,66.46,2.52E-005,71.19,6.00,9.00,3.00,8807.05,TARP,DOE-2,2935.68,651.86,456.30,195.56,6,4,0,Yes
 Zone Information, BUILDING STORY 4 THERMALZONE,0.0,0.00,0.00,0.00,33.23,35.60,10.50,1,1,1,8.57E-011,66.46,2.52E-005,71.19,9.00,12.00,3.00,8807.05,TARP,DOE-2,2935.68,651.86,456.30,195.56,6,4,0,Yes
 Zone Information, BUILDING STORY 5 THERMALZONE,0.0,0.00,0.00,0.00,33.23,35.60,13.50,1,1,1,8.57E-011,66.46,2.52E-005,71.19,12.00,15.00,3.00,8807.05,TARP,DOE-2,2935.68,651.86,456.30,195.56,6,4,0,Yes
 Zone Information, BUILDING STORY 6 THERMALZONE,0.0,0.00,0.00,0.00,33.23,35.60,16.50,1,1,1,8.57E-011,66.46,2.52E-005,71.19,15.00,18.00,3.00,8807.05,TARP,DOE-2,2935.68,651.86,456.30,195.56,6,4,0,Yes
 Zone Information, BUILDING STORY 7 THERMALZONE,0.0,0.00,0.00,0.00,33.23,35.60,19.50,1,1,1,8.57E-011,66.46,2.52E-005,71.19,18.00,21.00,3.00,8807.05,TARP,DOE-2,2935.68,651.86,456.30,195.56,6,4,0,Yes
 Zone Information, BUILDING STORY 8 THERMALZONE,0.0,0.00,0.00,0.00,33.23,35.60,22.50,1,1,1,8.57E-011,66.46,2.52E-005,71.19,21.00,24.00,3.00,8807.05,TARP,DOE-2,2935.68,651.86,456.30,195.56,6,4,0,Yes
 Zone Information, BUILDING STORY 9 THERMALZONE,0.0,0.00,0.00,0.00,33.23,35.60,25.50,1,1,1,8.57E-011,66.46,2.52E-005,71.19,24.00,27.00,3.00,8807.05,TARP,DOE-2,2935.68,651.86,456.30,195.56,6,4,0,Yes
! <Zone Internal Gains Nominal>,Zone Name, Floor Area {m2},# Occupants,Area per Occupant {m2/person},Occupant per Area {person/m2},Interior Lighting {W/m2},Electric Load {W/m2},Gas Load {W/m2},Other Load {W/m2},Hot Water Eq {W/m2},Steam Equipment {W/m2},Sum Loads per Area {W/m2},Outdoor Controlled Baseboard Heat
 Zone Internal Gains Nominal, BUILDING STORY 1 THERMALZONE,2935.68,112.8,26.023,3.843E-002,11.840,6.749,0.000,0.000,0.000,0.000,18.589,No
 Zone Internal Gains Nominal, BUILDING STORY 10 THERMALZONE,2935.68,112.8,26.023,3.843E-002,11.840,6.749,0.000,0.000,0.000,0.000,18.589,No
 Zone Internal Gains Nominal, BUILDING STORY 2 THERMALZONE,2935.68,112.8,26.023,3.843E-002,11.840,6.749,0.000,0.000,0.000,0.000,18.589,No
 Zone Internal Gains Nominal, BUILDING STORY 3 THERMALZONE,2935.68,31.6,92.903,1.076E-002,5.382,0.000,0.000,0.000,0.000,0.000,5.382,No
 Zone Internal Gains Nominal, BUILDING STORY 4 THERMALZONE,2935.68,31.6,92.903,1.076E-002,5.382,0.000,0.000,0.000,0.000,0.000,5.382,No
 Zone Internal Gains Nominal, BUILDING STORY 5 THERMALZONE,2935.68,112.8,26.023,3.843E-002,11.840,6.749,0.000,0.000,0.000,0.000,18.589,No
 Zone Internal Gains Nominal, BUILDING STORY 6 THERMALZONE,2935.68,110.0,26.698,3.746E-002,11.613,6.512,0.000,0.000,0.000,0.000,18.125,No
 Zone Internal Gains Nominal, BUILDING STORY 7 THERMALZONE,2935.68,1574.5,1.865,0.536,12.994,40.090,0.000,0.000,0.000,0.000,53.084,No
 Zone Internal Gains Nominal, BUILDING STORY 8 THERMALZONE,2935.68,886.0,3.313,0.302,11.404,7.527,0.000,0.000,0.000,0.000,18.931,No
 Zone Internal Gains Nominal, BUILDING STORY 9 THERMALZONE,2935.68,899.3,3.265,0.306,13.409,167.720,311.512,0.000,0.000,0.000,492.641,No
! <People Internal Gains Nominal>,Name,Schedule Name,Zone Name,Zone Floor Area {m2},# Zone Occupants,Number of People {},People/Floor Area {person/m2},Floor Area per person {m2/person},Fraction Radiant,Fraction Convected,Sensible Fraction Calculation,Activity level,ASHRAE 55 Warnings,Carbon Dioxide Generation Rate,Nominal Minimum Number of People,Nominal Maximum Number of People
 People Internal Gains Nominal, BUILDING STORY 9 THERMALZONE LARGEHOTEL BANQUET PEOPLE 1,HOTELLARGE MEETINGROOM_OCC_SCH,BUILDING STORY 9 THERMALZONE,2935.68,899.3,365.7,0.125,8.028,0.300,0.700,AutoCalculate,HOTELLARGE ACTIVITY_SCH,No,3.8200E-008,0,366
 People Internal Gains Nominal, BUILDING STORY 9 THERMALZONE LARGEHOTEL CAFE PEOPLE 1,HOTELLARGE BLDG_OCC_SCH,BUILDING STORY 9 THERMALZONE,2935.68,899.3,425.7,0.145,6.896,0.300,0.700,AutoCalculate,HOTELLARGE ACTIVITY_SCH,No,3.8200E-008,0,426
 People Internal Gains Nominal, BUILDING STORY 9 THERMALZONE LARGEHOTEL KITCHEN PEOPLE 1,HOTELLARGE BLDG_OCC_SCH,BUILDING STORY 9 THERMALZONE,2935.68,899.3,17.4,5.932E-003,168.573,0.300,0.700,AutoCalculate,HOTELLARGE ACTIVITY_SCH,No,3.8200E-008,0,17
 People Internal Gains Nominal, BUILDING STORY 9 THERMALZONE LARGEHOTEL LAUNDRY PEOPLE 1,HOTELLARGE LAUNDRYROOM_OCC_SCH,BUILDING STORY 9 THERMALZONE,2935.68,899.3,10.6,3.598E-003,277.901,0.300,0.700,AutoCalculate,HOTELLARGE ACTIVITY_SCH,No,3.8200E-008,0,11
 People Internal Gains Nominal, BUILDING STORY 9 THERMALZONE LARGEHOTEL RETAIL PEOPLE 1,HOTELLARGE BLDG_OCC_SCH,BUILDING STORY 9 THERMALZONE,2935.68,899.3,73.5,2.503E-002,39.948,0.300,0.700,AutoCalculate,HOTELLARGE ACTIVITY_SCH,No,3.8200E-008,0,73
 People Internal Gains Nominal, BUILDING STORY 9 THERMALZONE LARGEHOTEL STORAGE PEOPLE 1,HOTELLARGE BLDG_OCC_SCH,BUILDING STORY 9 THERMALZONE,2935.68,899.3,6.4,2.190E-003,456.552,0.300,0.700,AutoCalculate,HOTELLARGE ACTIVITY_SCH,No,3.8200E-008,0,6
 People Internal Gains Nominal, BUILDING STORY 7 THERMALZONE LARGEHOTEL BANQUET PEOPLE 2,HOTELLARGE MEETINGROOM_OCC_SCH,BUILDING STORY 7 THERMALZONE,2935.68,1574.5,1134.5,0.386,2.588,0.300,0.700,AutoCalculate,HOTELLARGE ACTIVITY_SCH,No,3.8200E-008,0,1134
 People Internal Gains Nominal, BUILDING STORY 7 THERMALZONE LARGEHOTEL LOBBY PEOPLE 1,HOTELLARGE BLDG_OCC_SCH,BUILDING STORY 7 THERMALZONE,2935.68,1574.5,440.0,0.150,6.672,0.300,0.700,AutoCalculate,HOTELLARGE ACTIVITY_SCH,No,3.8200E-008,0,440
 People Internal Gains Nominal, BUILDING STORY 8 THERMALZONE LARGEHOTEL CORRIDOR PEOPLE 1,HOTELLARGE BLDG_OCC_SCH,BUILDING STORY 8 THERMALZONE,2935.68,886.0,2.1,7.275E-004,1374.565,0.300,0.700,AutoCalculate,HOTELLARGE ACTIVITY_SCH,No,3.8200E-008,0,2
 People Internal Gains Nominal, BUILDING STORY 8 THERMALZONE LARGEHOTEL LOBBY PEOPLE 2,HOTELLARGE BLDG_OCC_SCH,BUILDING STORY 8 THERMALZONE,2935.68,886.0,883.9,0.301,3.321,0.300,0.700,AutoCalculate,HOTELLARGE ACTIVITY_SCH,No,3.8200E-008,0,884
 People Internal Gains Nominal, BUILDING STORY 4 THERMALZONE LARGEHOTEL CORRIDOR PEOPLE 2,HOTELLARGE BLDG_OCC_SCH,BUILDING STORY 4 THERMALZONE,2935.68,31.6,31.6,1.076E-002,92.903,0.300,0.700,AutoCalculate,HOTELLARGE ACTIVITY_SCH,No,3.8200E-008,0,32
 People Internal Gains Nominal, BUILDING STORY 3 THERMALZONE LARGEHOTEL CORRIDOR PEOPLE 3,HOTELLARGE BLDG_OCC_SCH,BUILDING STORY 3 THERMALZONE,2935.68,31.6,31.6,1.076E-002,92.903,0.300,0.700,AutoCalculate,HOTELLARGE ACTIVITY_SCH,No,3.8200E-008,0,32
 People Internal Gains Nominal, BUILDING STORY 6 THERMALZONE LARGEHOTEL CORRIDOR PEOPLE 4,HOTELLARGE BLDG_OCC_SCH,BUILDING STORY 6 THERMALZONE,2935.68,110.0,1.1,3.781E-004,2644.853,0.300,0.700,AutoCalculate,HOTELLARGE ACTIVITY_SCH,No,3.8200E-008,0,1
 People Internal Gains Nominal, BUILDING STORY 6 THERMALZONE LARGEHOTEL GUESTROOM PEOPLE 1,HOTELLARGE GUESTROOM_OCC_SCH,BUILDING STORY 6 THERMALZONE,2935.68,110.0,108.8,3.708E-002,26.971,0.300,0.700,AutoCalculate,HOTELLARGE ACTIVITY_SCH,No,3.8200E-008,0,109
 People Internal Gains Nominal, BUILDING STORY 2 THERMALZONE LARGEHOTEL GUESTROOM PEOPLE 2,HOTELLARGE GUESTROOM_OCC_SCH,BUILDING STORY 2 THERMALZONE,2935.68,112.8,112.8,3.843E-002,26.023,0.300,0.700,AutoCalculate,HOTELLARGE ACTIVITY_SCH,No,3.8200E-008,0,113
 People Internal Gains Nominal, BUILDING STORY 5 THERMALZONE LARGEHOTEL GUESTROOM PEOPLE 3,HOTELLARGE GUESTROOM_OCC_SCH,BUILDING STORY 5 THERMALZONE,2935.68,112.8,112.8,3.843E-002,26.023,0.300,0.700,AutoCalculate,HOTELLARGE ACTIVITY_SCH,No,3.8200E-008,0,113
 People Internal Gains Nominal, BUILDING STORY 10 THERMALZONE LARGEHOTEL GUESTROOM PEOPLE 4,HOTELLARGE GUESTROOM_OCC_SCH,BUILDING STORY 10 THERMALZONE,2935.68,112.8,112.8,3.843E-002,26.023,0.300,0.700,AutoCalculate,HOTELLARGE ACTIVITY_SCH,No,3.8200E-008,0,113
 People Internal Gains Nominal, BUILDING STORY 1 THERMALZONE LARGEHOTEL GUESTROOM PEOPLE 5,HOTELLARGE GUESTROOM_OCC_SCH,BUILDING STORY 1 THERMALZONE,2935.68,112.8,112.8,3.843E-002,26.023,0.300,0.700,AutoCalculate,HOTELLARGE ACTIVITY_SCH,No,3.8200E-008,0,113
! <Lights Internal Gains Nominal>,Name,Schedule Name,Zone Name,Zone Floor Area {m2},# Zone Occupants,Lighting Level {W},Lights/Floor Area {W/m2},Lights per person {W/person},Fraction Return Air,Fraction Radiant,Fraction Short Wave,Fraction Convected,Fraction Replaceable,End-Use Category,Nominal Minimum Lighting Level {W},Nominal Maximum Lighting Level {W}
 Lights Internal Gains Nominal, BUILDING STORY 9 THERMALZONE LARGEHOTEL BANQUET LIGHTS 1,HOTELLARGE BLDG_LIGHT_SCH,BUILDING STORY 9 THERMALZONE,2935.68,899.3,7095.325,2.417,7.890,0.000,0.700,0.200,0.100,1.000,General,0.000,7095.325
 Lights Internal Gains Nominal, BUILDING STORY 9 THERMALZONE LARGEHOTEL CAFE LIGHTS 1,HOTELLARGE BLDG_LIGHT_SCH,BUILDING STORY 9 THERMALZONE,2935.68,899.3,8259.635,2.814,9.185,0.000,0.700,0.200,0.100,1.000,General,0.000,8259.635
 Lights Internal Gains Nominal, BUILDING STORY 9 THERMALZONE LARGEHOTEL KITCHEN LIGHTS 1,HOTELLARGE BLDG_LIGHT_SCH,BUILDING STORY 9 THERMALZONE,2935.68,899.3,4179.574,1.424,4.648,0.000,0.700,0.200,0.100,1.000,General,0.000,4179.574
 Lights Internal Gains Nominal, BUILDING STORY 9 THERMALZONE LARGEHOTEL LAUNDRY LIGHTS 1,HOTELLARGE BLDG_LIGHT_SCH,BUILDING STORY 9 THERMALZONE,2935.68,899.3,1584.564,0.540,1.762,0.000,0.700,0.200,0.100,1.000,General,0.000,1584.564
 Lights Internal Gains Nominal, BUILDING STORY 9 THERMALZONE LARGEHOTEL MECHANICAL LIGHTS 1,HOTELLARGE BLDG_LIGHT_SCH,BUILDING STORY 9 THERMALZONE,2935.68,899.3,8324.702,2.836,9.257,0.000,0.700,0.200,0.100,1.000,General,0.000,8324.702
 Lights Internal Gains Nominal, BUILDING STORY 9 THERMALZONE LARGEHOTEL RETAIL LIGHTS 1,HOTELLARGE BLDG_LIGHT_SCH,BUILDING STORY 9 THERMALZONE,2935.68,899.3,7348.702,2.503,8.172,0.000,0.700,0.200,0.100,1.000,General,0.000,7348.702
 Lights Internal Gains Nominal, BUILDING STORY 9 THERMALZONE LARGEHOTEL STORAGE LIGHTS 1,HOTELLARGE BLDG_LIGHT_STORAGE_SCH,BUILDING STORY 9 THERMALZONE,2935.68,899.3,2572.046,0.876,2.860,0.000,0.700,0.200,0.100,1.000,General,0.000,2572.046
 Lights Internal Gains Nominal, BUILDING STORY 7 THERMALZONE LARGEHOTEL BANQUET LIGHTS 2,HOTELLARGE BLDG_LIGHT_SCH,BUILDING STORY 7 THERMALZONE,2935.68,1574.5,22012.426,7.498,13.981,0.000,0.700,0.200,0.100,1.000,General,0.000,22012.426
 Lights Internal Gains Nominal, BUILDING STORY 7 THERMALZONE LARGEHOTEL LOBBY LIGHTS 1,HOTELLARGE BLDG_LIGHT_SCH,BUILDING STORY 7 THERMALZONE,2935.68,1574.5,16133.464,5.496,10.247,0.000,0.700,0.200,0.100,1.000,General,0.000,16133.464
 Lights Internal Gains Nominal, BUILDING STORY 8 THERMALZONE LARGEHOTEL CORRIDOR LIGHTS 1,HOTELLARGE BLDG_LIGHT_CORRIDOR_SCH,BUILDING STORY 8 THERMALZONE,2935.68,886.0,1067.858,0.364,1.205,0.000,0.700,0.200,0.100,1.000,General,0.000,1067.858
 Lights Internal Gains Nominal, BUILDING STORY 8 THERMALZONE LARGEHOTEL LOBBY LIGHTS 2,HOTELLARGE BLDG_LIGHT_SCH,BUILDING STORY 8 THERMALZONE,2935.68,886.0,32410.074,11.040,36.578,0.000,0.700,0.200,0.100,1.000,General,0.000,32410.074
 Lights Internal Gains Nominal, BUILDING STORY 4 THERMALZONE LARGEHOTEL CORRIDOR LIGHTS 2,HOTELLARGE BLDG_LIGHT_CORRIDOR_SCH,BUILDING STORY 4 THERMALZONE,2935.68,31.6,15799.710,5.382,500.000,0.000,0.700,0.200,0.100,1.000,General,0.000,15799.710
 Lights Internal Gains Nominal, BUILDING STORY 3 THERMALZONE LARGEHOTEL CORRIDOR LIGHTS 3,HOTELLARGE BLDG_LIGHT_CORRIDOR_SCH,BUILDING STORY 3 THERMALZONE,2935.68,31.6,15799.710,5.382,500.000,0.000,0.700,0.200,0.100,1.000,General,0.000,15799.710
 Lights Internal Gains Nominal, BUILDING STORY 6 THERMALZONE LARGEHOTEL CORRIDOR LIGHTS 4,HOTELLARGE BLDG_LIGHT_CORRIDOR_SCH,BUILDING STORY 6 THERMALZONE,2935.68,110.0,554.980,0.189,5.047,0.000,0.700,0.200,0.100,1.000,General,0.000,554.980
 Lights Internal Gains Nominal, BUILDING STORY 6 THERMALZONE LARGEHOTEL GUESTROOM LIGHTS 1,HOTELLARGE BLDG_LIGHT_GUESTROOM_SCH,BUILDING STORY 6 THERMALZONE,2935.68,110.0,33538.406,11.424,305.013,0.000,0.700,0.200,0.100,1.000,General,0.000,33538.406
 Lights Internal Gains Nominal, BUILDING STORY 2 THERMALZONE LARGEHOTEL GUESTROOM LIGHTS 2,HOTELLARGE BLDG_LIGHT_GUESTROOM_SCH,BUILDING STORY 2 THERMALZONE,2935.68,112.8,34759.362,11.840,308.123,0.000,0.700,0.200,0.100,1.000,General,0.000,34759.362
 Lights Internal Gains Nominal, BUILDING STORY 5 THERMALZONE LARGEHOTEL GUESTROOM LIGHTS 3,HOTELLARGE BLDG_LIGHT_GUESTROOM_SCH,BUILDING STORY 5 THERMALZONE,2935.68,112.8,34759.362,11.840,308.123,0.000,0.700,0.200,0.100,1.000,General,0.000,34759.362
 Lights Internal Gains Nominal, BUILDING STORY 10 THERMALZONE LARGEHOTEL GUESTROOM LIGHTS 4,HOTELLARGE BLDG_LIGHT_GUESTROOM_SCH,BUILDING STORY 10 THERMALZONE,2935.68,112.8,34759.362,11.840,308.123,0.000,0.700,0.200,0.100,1.000,General,0.000,34759.362
 Lights Internal Gains Nominal, BUILDING STORY 1 THERMALZONE LARGEHOTEL GUESTROOM LIGHTS 5,HOTELLARGE BLDG_LIGHT_GUESTROOM_SCH,BUILDING STORY 1 THERMALZONE,2935.68,112.8,34759.362,11.840,308.123,0.000,0.700,0.200,0.100,1.000,General,0.000,34759.362
! <ElectricEquipment Internal Gains Nominal>,Name,Schedule Name,Zone Name,Zone Floor Area {m2},# Zone Occupants,Equipment Level {W},Equipment/Floor Area {W/m2},Equipment per person {W/person},Fraction Latent,Fraction Radiant,Fraction Lost,Fraction Convected,End-Use SubCategory,Nominal Minimum Equipment Level {W},Nominal Maximum Equipment Level {W}
 ElectricEquipment Internal Gains Nominal, BUILDING STORY 9 THERMALZONE 13 ELEVATOR FANS,ELEVATOR SCHEDULE 3,BUILDING STORY 9 THERMALZONE,2935.68,899.3,970.918,0.331,1.080,0.000,0.500,0.000,0.500,Elevators,0.000,970.918
 ElectricEquipment Internal Gains Nominal, BUILDING STORY 9 THERMALZONE 13 ELEVATOR LIFT MOTORS,ELEVATOR SCHEDULE 1,BUILDING STORY 9 THERMALZONE,2935.68,899.3,264671.132,90.157,294.319,0.000,0.000,1.000,0.000,Elevators,0.000,264671.132
 ElectricEquipment Internal Gains Nominal, BUILDING STORY 9 THERMALZONE 13 ELEVATOR LIGHTS,ELEVATOR SCHEDULE 2,BUILDING STORY 9 THERMALZONE,2935.68,899.3,1155.855,0.394,1.285,0.000,0.500,0.000,0.500,Elevators,0.000,1155.855
 ElectricEquipment Internal Gains Nominal, BUILDING STORY 9 THERMALZONE LARGEHOTEL BANQUET ELEC EQUIP 1,HOTELLARGE KITCHEN_ELEC_EQUIP_SCH,BUILDING STORY 9 THERMALZONE,2935.68,899.3,34390.496,11.715,38.243,0.000,0.500,0.000,0.500,General,0.000,10317.149
 ElectricEquipment Internal Gains Nominal, BUILDING STORY 9 THERMALZONE LARGEHOTEL CAFE ELEC EQUIP 1,HOTELLARGE BLDG_EQUIP_SCH,BUILDING STORY 9 THERMALZONE,2935.68,899.3,3176.783,1.082,3.533,0.000,0.500,0.000,0.500,General,0.000,3176.783
 ElectricEquipment Internal Gains Nominal, BUILDING STORY 9 THERMALZONE LARGEHOTEL KITCHEN ELEC EQUIP 1,HOTELLARGE KITCHEN_ELEC_EQUIP_SCH,BUILDING STORY 9 THERMALZONE,2935.68,899.3,164396.597,55.999,182.812,0.200,0.500,0.100,0.200,General,0.000,49318.979
 ElectricEquipment Internal Gains Nominal, BUILDING STORY 9 THERMALZONE LARGEHOTEL LAUNDRY ELEC EQUIP 1,HOTELLARGE BLDG_EQUIP_SCH,BUILDING STORY 9 THERMALZONE,2935.68,899.3,15132.586,5.155,16.828,0.000,0.500,0.000,0.500,General,0.000,15132.586
 ElectricEquipment Internal Gains Nominal, BUILDING STORY 9 THERMALZONE LARGEHOTEL MECHANICAL ELEC EQUIP 1,HOTELLARGE BASEMENT_EQUIP_SCH,BUILDING STORY 9 THERMALZONE,2935.68,899.3,2774.901,0.945,3.086,0.000,0.500,0.000,0.500,General,0.000,2774.901
 ElectricEquipment Internal Gains Nominal, BUILDING STORY 9 THERMALZONE LARGEHOTEL RETAIL ELEC EQUIP 1,HOTELLARGE BLDG_EQUIP_SCH,BUILDING STORY 9 THERMALZONE,2935.68,899.3,4899.135,1.669,5.448,0.000,0.500,0.000,0.500,General,0.000,4899.135
 ElectricEquipment Internal Gains Nominal, BUILDING STORY 9 THERMALZONE LARGEHOTEL STORAGE ELEC EQUIP 1,HOTELLARGE BASEMENT_EQUIP_SCH,BUILDING STORY 9 THERMALZONE,2935.68,899.3,803.764,0.274,0.894,0.000,0.500,0.000,0.500,General,0.000,803.764
 ElectricEquipment Internal Gains Nominal, BUILDING STORY 7 THERMALZONE LARGEHOTEL BANQUET ELEC EQUIP 2,HOTELLARGE KITCHEN_ELEC_EQUIP_SCH,BUILDING STORY 7 THERMALZONE,2935.68,1574.5,106692.534,36.343,67.763,0.000,0.500,0.000,0.500,General,0.000,32007.760
 ElectricEquipment Internal Gains Nominal, BUILDING STORY 7 THERMALZONE LARGEHOTEL LOBBY ELEC EQUIP 1,HOTELLARGE BLDG_EQUIP_SCH,BUILDING STORY 7 THERMALZONE,2935.68,1574.5,11000.089,3.747,6.986,0.000,0.500,0.000,0.500,General,0.000,11000.089
 ElectricEquipment Internal Gains Nominal, BUILDING STORY 8 THERMALZONE LARGEHOTEL LOBBY ELEC EQUIP 2,HOTELLARGE BLDG_EQUIP_SCH,BUILDING STORY 8 THERMALZONE,2935.68,886.0,22097.778,7.527,24.940,0.000,0.500,0.000,0.500,General,0.000,22097.778
 ElectricEquipment Internal Gains Nominal, BUILDING STORY 6 THERMALZONE LARGEHOTEL GUESTROOM ELEC EQUIP 1,HOTELLARGE GUESTROOM_EQP_SCH_BASE,BUILDING STORY 6 THERMALZONE,2935.68,110.0,19116.891,6.512,173.857,0.000,0.500,0.000,0.500,General,0.000,19116.891
 ElectricEquipment Internal Gains Nominal, BUILDING STORY 2 THERMALZONE LARGEHOTEL GUESTROOM ELEC EQUIP 2,HOTELLARGE GUESTROOM_EQP_SCH_BASE,BUILDING STORY 2 THERMALZONE,2935.68,112.8,19812.837,6.749,175.630,0.000,0.500,0.000,0.500,General,0.000,19812.837
 ElectricEquipment Internal Gains Nominal, BUILDING STORY 5 THERMALZONE LARGEHOTEL GUESTROOM ELEC EQUIP 3,HOTELLARGE GUESTROOM_EQP_SCH_BASE,BUILDING STORY 5 THERMALZONE,2935.68,112.8,19812.837,6.749,175.630,0.000,0.500,0.000,0.500,General,0.000,19812.837
 ElectricEquipment Internal Gains Nominal, BUILDING STORY 10 THERMALZONE LARGEHOTEL GUESTROOM ELEC EQUIP 4,HOTELLARGE GUESTROOM_EQP_SCH_BASE,BUILDING STORY 10 THERMALZONE,2935.68,112.8,19812.837,6.749,175.630,0.000,0.500,0.000,0.500,General,0.000,19812.837
 ElectricEquipment Internal Gains Nominal, BUILDING STORY 1 THERMALZONE LARGEHOTEL GUESTROOM ELEC EQUIP 5,HOTELLARGE GUESTROOM_EQP_SCH_BASE,BUILDING STORY 1 THERMALZONE,2935.68,112.8,19812.837,6.749,175.630,0.000,0.500,0.000,0.500,General,0.000,19812.837
! <GasEquipment Internal Gains Nominal>,Name,Schedule Name,Zone Name,Zone Floor Area {m2},# Zone Occupants,Equipment Level {W},Equipment/Floor Area {W/m2},Equipment per person {W/person},Fraction Latent,Fraction Radiant,Fraction Lost,Fraction Convected,End-Use SubCategory,Nominal Minimum Equipment Level {W},Nominal Maximum Equipment Level {W}
 GasEquipment Internal Gains Nominal, BUILDING STORY 9 THERMALZONE LARGEHOTEL KITCHEN GAS EQUIP 1,HOTELLARGE KITCHEN_GAS_EQUIP_SCH,BUILDING STORY 9 THERMALZONE,2935.68,899.3,782923.156,266.692,870.624,0.100,0.200,0.700,0.000,General,0.000,234876.947
 GasEquipment Internal Gains Nominal, BUILDING STORY 9 THERMALZONE LARGEHOTEL LAUNDRY GAS EQUIP 1,HOTELLARGE BLDG_EQUIP_SCH,BUILDING STORY 9 THERMALZONE,2935.68,899.3,131577.125,44.820,146.316,0.000,0.500,0.000,0.500,General,0.000,131577.125
! <Shadowing/Sun Position Calculations Annual Simulations>, Calculation Method, Value {days}, Allowable Number Figures in Shadow Overlap {}, Polygon Clipping Algorithm, Sky Diffuse Modeling Algorithm, External Shading Calculation Method, Output External Shading Calculation Results, Disable Self-Shading Within Shading Zone Groups, Disable Self-Shading From Shading Zone Groups to Other Zones
Shadowing/Sun Position Calculations Annual Simulations,AverageOverDaysInFrequency,20,15000,SutherlandHodgman,SimpleSkyDiffuseModeling,InternalCalculation,No,No,No
! <Water Heater Information>,Type,Name,Volume {m3},Maximum Capacity {W},Standard Rated Recovery Efficiency, Standard Rated Energy Factor
! <ZoneInfiltration Airflow Stats Nominal>,Name,Schedule Name,Zone Name, Zone Floor Area {m2}, # Zone Occupants,Design Volume Flow Rate {m3/s},Volume Flow Rate/Floor Area {m3/s-m2},Volume Flow Rate/Exterior Surface Area {m3/s-m2},ACH - Air Changes per Hour,Equation A - Constant Term Coefficient {},Equation B - Temperature Term Coefficient {1/C},Equation C - Velocity Term Coefficient {s/m}, Equation D - Velocity Squared Term Coefficient {s2/m2}
 ZoneInfiltration Airflow Stats Nominal, BUILDING STORY 9 THERMALZONE LARGEHOTEL BANQUET A  - STORY GROUND INFILTRATION,ALWAYS ON DISCRETE,BUILDING STORY 9 THERMALZONE,2935.68,899.3,4.825E-002,1.644E-005,7.403E-005,1.972E-002,0.000,0.000,0.224,0.000
 ZoneInfiltration Airflow Stats Nominal, BUILDING STORY 9 THERMALZONE LARGEHOTEL BANQUET C  - STORY GROUND INFILTRATION,ALWAYS ON DISCRETE,BUILDING STORY 9 THERMALZONE,2935.68,899.3,4.825E-002,1.644E-005,7.403E-005,1.972E-002,0.000,0.000,0.224,0.000
 ZoneInfiltration Airflow Stats Nominal, BUILDING STORY 9 THERMALZONE LARGEHOTEL CAFE A  - STORY GROUND INFILTRATION,ALWAYS ON DISCRETE,BUILDING STORY 9 THERMALZONE,2935.68,899.3,4.574E-002,1.558E-005,7.016E-005,1.870E-002,0.000,0.000,0.224,0.000
 ZoneInfiltration Airflow Stats Nominal, BUILDING STORY 9 THERMALZONE LARGEHOTEL CAFE A END_A - STORY GROUND INFILTRATION,ALWAYS ON DISCRETE,BUILDING STORY 9 THERMALZONE,2935.68,899.3,2.087E-002,7.110E-006,3.202E-005,8.532E-003,0.000,0.000,0.224,0.000
 ZoneInfiltration Airflow Stats Nominal, BUILDING STORY 9 THERMALZONE LARGEHOTEL CAFE B END_A - STORY GROUND INFILTRATION,ALWAYS ON DISCRETE,BUILDING STORY 9 THERMALZONE,2935.68,899.3,3.391E-002,1.155E-005,5.202E-005,1.386E-002,0.000,0.000,0.224,0.000
 ZoneInfiltration Airflow Stats Nominal, BUILDING STORY 9 THERMALZONE LARGEHOTEL CAFE C  - STORY GROUND INFILTRATION,ALWAYS ON DISCRETE,BUILDING STORY 9 THERMALZONE,2935.68,899.3,4.574E-002,1.558E-005,7.016E-005,1.870E-002,0.000,0.000,0.224,0.000
 ZoneInfiltration Airflow Stats Nominal, BUILDING STORY 9 THERMALZONE LARGEHOTEL CAFE C END_A - STORY GROUND INFILTRATION,ALWAYS ON DISCRETE,BUILDING STORY 9 THERMALZONE,2935.68,899.3,2.087E-002,7.110E-006,3.202E-005,8.532E-003,0.000,0.000,0.224,0.000
 ZoneInfiltration Airflow Stats Nominal, BUILDING STORY 9 THERMALZONE LARGEHOTEL KITCHEN A  - STORY GROUND INFILTRATION,ALWAYS ON DISCRETE,BUILDING STORY 9 THERMALZONE,2935.68,899.3,3.079E-002,1.049E-005,4.724E-005,1.259E-002,0.000,0.000,0.224,0.000
 ZoneInfiltration Airflow Stats Nominal, BUILDING STORY 9 THERMALZONE LARGEHOTEL KITCHEN C  - STORY GROUND INFILTRATION,ALWAYS ON DISCRETE,BUILDING STORY 9 THERMALZONE,2935.68,899.3,3.079E-002,1.049E-005,4.724E-005,1.259E-002,0.000,0.000,0.224,0.000
 ZoneInfiltration Airflow Stats Nominal, BUILDING STORY 9 THERMALZONE LARGEHOTEL LAUNDRY A  - STORY GROUND INFILTRATION,ALWAYS ON DISCRETE,BUILDING STORY 9 THERMALZONE,2935.68,899.3,2.335E-002,7.953E-006,3.582E-005,9.544E-003,0.000,0.000,0.224,0.000
 ZoneInfiltration Airflow Stats Nominal, BUILDING STORY 9 THERMALZONE LARGEHOTEL LAUNDRY C  - STORY GROUND INFILTRATION,ALWAYS ON DISCRETE,BUILDING STORY 9 THERMALZONE,2935.68,899.3,2.335E-002,7.953E-006,3.582E-005,9.544E-003,0.000,0.000,0.224,0.000
 ZoneInfiltration Airflow Stats Nominal, BUILDING STORY 9 THERMALZONE LARGEHOTEL MECHANICAL A  - STORY GROUND INFILTRATION,ALWAYS ON DISCRETE,BUILDING STORY 9 THERMALZONE,2935.68,899.3,3.863E-002,1.316E-005,5.926E-005,1.579E-002,0.000,0.000,0.224,0.000
 ZoneInfiltration Airflow Stats Nominal, BUILDING STORY 9 THERMALZONE LARGEHOTEL MECHANICAL A END_B - STORY GROUND INFILTRATION,ALWAYS ON DISCRETE,BUILDING STORY 9 THERMALZONE,2935.68,899.3,2.087E-002,7.110E-006,3.202E-005,8.532E-003,0.000,0.000,0.224,0.000
 ZoneInfiltration Airflow Stats Nominal, BUILDING STORY 9 THERMALZONE LARGEHOTEL MECHANICAL B END_B - STORY GROUND INFILTRATION,ALWAYS ON DISCRETE,BUILDING STORY 9 THERMALZONE,2935.68,899.3,3.391E-002,1.155E-005,5.202E-005,1.386E-002,0.000,0.000,0.224,0.000
 ZoneInfiltration Airflow Stats Nominal, BUILDING STORY 9 THERMALZONE LARGEHOTEL MECHANICAL C  - STORY GROUND INFILTRATION,ALWAYS ON DISCRETE,BUILDING STORY 9 THERMALZONE,2935.68,899.3,3.863E-002,1.316E-005,5.926E-005,1.579E-002,0.000,0.000,0.224,0.000
 ZoneInfiltration Airflow Stats Nominal, BUILDING STORY 9 THERMALZONE LARGEHOTEL MECHANICAL C END_B - STORY GROUND INFILTRATION,ALWAYS ON DISCRETE,BUILDING STORY 9 THERMALZONE,2935.68,899.3,2.087E-002,7.110E-006,3.202E-005,8.532E-003,0.000,0.000,0.224,0.000
 ZoneInfiltration Airflow Stats Nominal, BUILDING STORY 9 THERMALZONE LARGEHOTEL RETAIL A  - STORY GROUND INFILTRATION,ALWAYS ON DISCRETE,BUILDING STORY 9 THERMALZONE,2935.68,899.3,4.331E-002,1.475E-005,6.645E-005,1.771E-002,0.000,0.000,0.224,0.000
 ZoneInfiltration Airflow Stats Nominal, BUILDING STORY 9 THERMALZONE LARGEHOTEL RETAIL C  - STORY GROUND INFILTRATION,ALWAYS ON DISCRETE,BUILDING STORY 9 THERMALZONE,2935.68,899.3,4.331E-002,1.475E-005,6.645E-005,1.771E-002,0.000,0.000,0.224,0.000
 ZoneInfiltration Airflow Stats Nominal, BUILDING STORY 9 THERMALZONE LARGEHOTEL STORAGE A  - STORY GROUND INFILTRATION,ALWAYS ON DISCRETE,BUILDING STORY 9 THERMALZONE,2935.68,899.3,2.842E-002,9.682E-006,4.361E-005,1.162E-002,0.000,0.000,0.224,0.000
 ZoneInfiltration Airflow Stats Nominal, BUILDING STORY 9 THERMALZONE LARGEHOTEL STORAGE C  - STORY GROUND INFILTRATION,ALWAYS ON DISCRETE,BUILDING STORY 9 THERMALZONE,2935.68,899.3,2.842E-002,9.682E-006,4.361E-005,1.162E-002,0.000,0.000,0.224,0.000
 ZoneInfiltration Airflow Stats Nominal, BUILDING STORY 7 THERMALZONE LARGEHOTEL BANQUET A  - STORY MID INFILTRATION,ALWAYS ON DISCRETE,BUILDING STORY 7 THERMALZONE,2935.68,1574.5,0.139,4.744E-005,2.136E-004,5.693E-002,0.000,0.000,0.224,0.000
 ZoneInfiltration Airflow Stats Nominal, BUILDING STORY 7 THERMALZONE LARGEHOTEL BANQUET A END_A - STORY MID INFILTRATION,ALWAYS ON DISCRETE,BUILDING STORY 7 THERMALZONE,2935.68,1574.5,2.087E-002,7.110E-006,3.202E-005,8.532E-003,0.000,0.000,0.224,0.000
 ZoneInfiltration Airflow Stats Nominal, BUILDING STORY 7 THERMALZONE LARGEHOTEL BANQUET B END_A - STORY MID INFILTRATION,ALWAYS ON DISCRETE,BUILDING STORY 7 THERMALZONE,2935.68,1574.5,3.391E-002,1.155E-005,5.202E-005,1.386E-002,0.000,0.000,0.224,0.000
 ZoneInfiltration Airflow Stats Nominal, BUILDING STORY 7 THERMALZONE LARGEHOTEL BANQUET C  - STORY MID INFILTRATION,ALWAYS ON DISCRETE,BUILDING STORY 7 THERMALZONE,2935.68,1574.5,0.139,4.744E-005,2.136E-004,5.693E-002,0.000,0.000,0.224,0.000
 ZoneInfiltration Airflow Stats Nominal, BUILDING STORY 7 THERMALZONE LARGEHOTEL BANQUET C END_A - STORY MID INFILTRATION,ALWAYS ON DISCRETE,BUILDING STORY 7 THERMALZONE,2935.68,1574.5,2.087E-002,7.110E-006,3.202E-005,8.532E-003,0.000,0.000,0.224,0.000
 ZoneInfiltration Airflow Stats Nominal, BUILDING STORY 7 THERMALZONE LARGEHOTEL LOBBY A  - STORY MID INFILTRATION,ALWAYS ON DISCRETE,BUILDING STORY 7 THERMALZONE,2935.68,1574.5,0.119,4.062E-005,1.829E-004,4.874E-002,0.000,0.000,0.224,0.000
 ZoneInfiltration Airflow Stats Nominal, BUILDING STORY 7 THERMALZONE LARGEHOTEL LOBBY A END_B - STORY MID INFILTRATION,ALWAYS ON DISCRETE,BUILDING STORY 7 THERMALZONE,2935.68,1574.5,2.087E-002,7.110E-006,3.202E-005,8.532E-003,0.000,0.000,0.224,0.000
 ZoneInfiltration Airflow Stats Nominal, BUILDING STORY 7 THERMALZONE LARGEHOTEL LOBBY B END_B - STORY MID INFILTRATION,ALWAYS ON DISCRETE,BUILDING STORY 7 THERMALZONE,2935.68,1574.5,3.391E-002,1.155E-005,5.202E-005,1.386E-002,0.000,0.000,0.224,0.000
 ZoneInfiltration Airflow Stats Nominal, BUILDING STORY 7 THERMALZONE LARGEHOTEL LOBBY C  - STORY MID INFILTRATION,ALWAYS ON DISCRETE,BUILDING STORY 7 THERMALZONE,2935.68,1574.5,0.119,4.062E-005,1.829E-004,4.874E-002,0.000,0.000,0.224,0.000
 ZoneInfiltration Airflow Stats Nominal, BUILDING STORY 7 THERMALZONE LARGEHOTEL LOBBY C END_B - STORY MID INFILTRATION,ALWAYS ON DISCRETE,BUILDING STORY 7 THERMALZONE,2935.68,1574.5,2.087E-002,7.110E-006,3.202E-005,8.532E-003,0.000,0.000,0.224,0.000
 ZoneInfiltration Airflow Stats Nominal, BUILDING STORY 8 THERMALZONE LARGEHOTEL CORRIDOR A  - STORY MID2 INFILTRATION,ALWAYS ON DISCRETE,BUILDING STORY 8 THERMALZONE,2935.68,886.0,4.648E-002,1.583E-005,1.296E-005,1.900E-002,0.000,0.000,0.224,0.000
 ZoneInfiltration Airflow Stats Nominal, BUILDING STORY 8 THERMALZONE LARGEHOTEL CORRIDOR A END_B - STORY MID2 INFILTRATION,ALWAYS ON DISCRETE,BUILDING STORY 8 THERMALZONE,2935.68,886.0,0.115,3.913E-005,3.202E-005,4.696E-002,0.000,0.000,0.224,0.000
 ZoneInfiltration Airflow Stats Nominal, BUILDING STORY 8 THERMALZONE LARGEHOTEL CORRIDOR B END_B - STORY MID2 INFILTRATION,ALWAYS ON DISCRETE,BUILDING STORY 8 THERMALZONE,2935.68,886.0,0.187,6.357E-005,5.202E-005,7.628E-002,0.000,0.000,0.224,0.000
 ZoneInfiltration Airflow Stats Nominal, BUILDING STORY 8 THERMALZONE LARGEHOTEL CORRIDOR C  - STORY MID2 INFILTRATION,ALWAYS ON DISCRETE,BUILDING STORY 8 THERMALZONE,2935.68,886.0,4.648E-002,1.583E-005,1.296E-005,1.900E-002,0.000,0.000,0.224,0.000
 ZoneInfiltration Airflow Stats Nominal, BUILDING STORY 8 THERMALZONE LARGEHOTEL CORRIDOR C END_B - STORY MID2 INFILTRATION,ALWAYS ON DISCRETE,BUILDING STORY 8 THERMALZONE,2935.68,886.0,0.115,3.913E-005,3.202E-005,4.696E-002,0.000,0.000,0.224,0.000
 ZoneInfiltration Airflow Stats Nominal, BUILDING STORY 8 THERMALZONE LARGEHOTEL LOBBY A  - STORY MID2 INFILTRATION,ALWAYS ON DISCRETE,BUILDING STORY 8 THERMALZONE,2935.68,886.0,1.376,4.688E-004,3.836E-004,0.563,0.000,0.000,0.224,0.000
 ZoneInfiltration Airflow Stats Nominal, BUILDING STORY 8 THERMALZONE LARGEHOTEL LOBBY A END_A - STORY MID2 INFILTRATION,ALWAYS ON DISCRETE,BUILDING STORY 8 THERMALZONE,2935.68,886.0,0.115,3.913E-005,3.202E-005,4.696E-002,0.000,0.000,0.224,0.000
 ZoneInfiltration Airflow Stats Nominal, BUILDING STORY 8 THERMALZONE LARGEHOTEL LOBBY B END_A - STORY MID2 INFILTRATION,ALWAYS ON DISCRETE,BUILDING STORY 8 THERMALZONE,2935.68,886.0,0.187,6.357E-005,5.202E-005,7.628E-002,0.000,0.000,0.224,0.000
 ZoneInfiltration Airflow Stats Nominal, BUILDING STORY 8 THERMALZONE LARGEHOTEL LOBBY C  - STORY MID2 INFILTRATION,ALWAYS ON DISCRETE,BUILDING STORY 8 THERMALZONE,2935.68,886.0,1.376,4.688E-004,3.836E-004,0.563,0.000,0.000,0.224,0.000
 ZoneInfiltration Airflow Stats Nominal, BUILDING STORY 8 THERMALZONE LARGEHOTEL LOBBY C END_A - STORY MID2 INFILTRATION,ALWAYS ON DISCRETE,BUILDING STORY 8 THERMALZONE,2935.68,886.0,0.115,3.913E-005,3.202E-005,4.696E-002,0.000,0.000,0.224,0.000
 ZoneInfiltration Airflow Stats Nominal, BUILDING STORY 4 THERMALZONE LARGEHOTEL CORRIDOR A  - STORY MID3 INFILTRATION,ALWAYS ON DISCRETE,BUILDING STORY 4 THERMALZONE,2935.68,31.6,0.259,8.805E-005,3.966E-004,0.106,0.000,0.000,0.224,0.000
 ZoneInfiltration Airflow Stats Nominal, BUILDING STORY 4 THERMALZONE LARGEHOTEL CORRIDOR A END_A - STORY MID3 INFILTRATION,ALWAYS ON DISCRETE,BUILDING STORY 4 THERMALZONE,2935.68,31.6,2.087E-002,7.110E-006,3.202E-005,8.532E-003,0.000,0.000,0.224,0.000
 ZoneInfiltration Airflow Stats Nominal, BUILDING STORY 4 THERMALZONE LARGEHOTEL CORRIDOR A END_B - STORY MID3 INFILTRATION,ALWAYS ON DISCRETE,BUILDING STORY 4 THERMALZONE,2935.68,31.6,2.087E-002,7.110E-006,3.202E-005,8.532E-003,0.000,0.000,0.224,0.000
 ZoneInfiltration Airflow Stats Nominal, BUILDING STORY 4 THERMALZONE LARGEHOTEL CORRIDOR B END_A - STORY MID3 INFILTRATION,ALWAYS ON DISCRETE,BUILDING STORY 4 THERMALZONE,2935.68,31.6,3.391E-002,1.155E-005,5.202E-005,1.386E-002,0.000,0.000,0.224,0.000
 ZoneInfiltration Airflow Stats Nominal, BUILDING STORY 4 THERMALZONE LARGEHOTEL CORRIDOR B END_B - STORY MID3 INFILTRATION,ALWAYS ON DISCRETE,BUILDING STORY 4 THERMALZONE,2935.68,31.6,3.391E-002,1.155E-005,5.202E-005,1.386E-002,0.000,0.000,0.224,0.000
 ZoneInfiltration Airflow Stats Nominal, BUILDING STORY 4 THERMALZONE LARGEHOTEL CORRIDOR C  - STORY MID3 INFILTRATION,ALWAYS ON DISCRETE,BUILDING STORY 4 THERMALZONE,2935.68,31.6,0.259,8.805E-005,3.966E-004,0.106,0.000,0.000,0.224,0.000
 ZoneInfiltration Airflow Stats Nominal, BUILDING STORY 4 THERMALZONE LARGEHOTEL CORRIDOR C END_A - STORY MID3 INFILTRATION,ALWAYS ON DISCRETE,BUILDING STORY 4 THERMALZONE,2935.68,31.6,2.087E-002,7.110E-006,3.202E-005,8.532E-003,0.000,0.000,0.224,0.000
 ZoneInfiltration Airflow Stats Nominal, BUILDING STORY 4 THERMALZONE LARGEHOTEL CORRIDOR C END_B - STORY MID3 INFILTRATION,ALWAYS ON DISCRETE,BUILDING STORY 4 THERMALZONE,2935.68,31.6,2.087E-002,7.110E-006,3.202E-005,8.532E-003,0.000,0.000,0.224,0.000
 ZoneInfiltration Airflow Stats Nominal, BUILDING STORY 3 THERMALZONE LARGEHOTEL CORRIDOR A  - STORY MID4 INFILTRATION,ALWAYS ON DISCRETE,BUILDING STORY 3 THERMALZONE,2935.68,31.6,0.259,8.805E-005,3.966E-004,0.106,0.000,0.000,0.224,0.000
 ZoneInfiltration Airflow Stats Nominal, BUILDING STORY 3 THERMALZONE LARGEHOTEL CORRIDOR A END_A - STORY MID4 INFILTRATION,ALWAYS ON DISCRETE,BUILDING STORY 3 THERMALZONE,2935.68,31.6,2.087E-002,7.110E-006,3.202E-005,8.532E-003,0.000,0.000,0.224,0.000
 ZoneInfiltration Airflow Stats Nominal, BUILDING STORY 3 THERMALZONE LARGEHOTEL CORRIDOR A END_B - STORY MID4 INFILTRATION,ALWAYS ON DISCRETE,BUILDING STORY 3 THERMALZONE,2935.68,31.6,2.087E-002,7.110E-006,3.202E-005,8.532E-003,0.000,0.000,0.224,0.000
 ZoneInfiltration Airflow Stats Nominal, BUILDING STORY 3 THERMALZONE LARGEHOTEL CORRIDOR B END_A - STORY MID4 INFILTRATION,ALWAYS ON DISCRETE,BUILDING STORY 3 THERMALZONE,2935.68,31.6,3.391E-002,1.155E-005,5.202E-005,1.386E-002,0.000,0.000,0.224,0.000
 ZoneInfiltration Airflow Stats Nominal, BUILDING STORY 3 THERMALZONE LARGEHOTEL CORRIDOR B END_B - STORY MID4 INFILTRATION,ALWAYS ON DISCRETE,BUILDING STORY 3 THERMALZONE,2935.68,31.6,3.391E-002,1.155E-005,5.202E-005,1.386E-002,0.000,0.000,0.224,0.000
 ZoneInfiltration Airflow Stats Nominal, BUILDING STORY 3 THERMALZONE LARGEHOTEL CORRIDOR C  - STORY MID4 INFILTRATION,ALWAYS ON DISCRETE,BUILDING STORY 3 THERMALZONE,2935.68,31.6,0.259,8.805E-005,3.966E-004,0.106,0.000,0.000,0.224,0.000
 ZoneInfiltration Airflow Stats Nominal, BUILDING STORY 3 THERMALZONE LARGEHOTEL CORRIDOR C END_A - STORY MID4 INFILTRATION,ALWAYS ON DISCRETE,BUILDING STORY 3 THERMALZONE,2935.68,31.6,2.087E-002,7.110E-006,3.202E-005,8.532E-003,0.000,0.000,0.224,0.000
 ZoneInfiltration Airflow Stats Nominal, BUILDING STORY 3 THERMALZONE LARGEHOTEL CORRIDOR C END_B - STORY MID4 INFILTRATION,ALWAYS ON DISCRETE,BUILDING STORY 3 THERMALZONE,2935.68,31.6,2.087E-002,7.110E-006,3.202E-005,8.532E-003,0.000,0.000,0.224,0.000
 ZoneInfiltration Airflow Stats Nominal, BUILDING STORY 6 THERMALZONE LARGEHOTEL CORRIDOR A  - STORY MID5 INFILTRATION,ALWAYS ON DISCRETE,BUILDING STORY 6 THERMALZONE,2935.68,110.0,2.025E-002,6.898E-006,3.106E-005,8.277E-003,0.000,0.000,0.224,0.000
 ZoneInfiltration Airflow Stats Nominal, BUILDING STORY 6 THERMALZONE LARGEHOTEL CORRIDOR B  - STORY MID5 INFILTRATION,ALWAYS ON DISCRETE,BUILDING STORY 6 THERMALZONE,2935.68,110.0,3.391E-002,1.155E-005,5.202E-005,1.386E-002,0.000,0.000,0.224,0.000
 ZoneInfiltration Airflow Stats Nominal, BUILDING STORY 6 THERMALZONE LARGEHOTEL CORRIDOR C  - STORY MID5 INFILTRATION,ALWAYS ON DISCRETE,BUILDING STORY 6 THERMALZONE,2935.68,110.0,2.025E-002,6.898E-006,3.106E-005,8.277E-003,0.000,0.000,0.224,0.000
 ZoneInfiltration Airflow Stats Nominal, BUILDING STORY 6 THERMALZONE LARGEHOTEL GUESTROOM A  - STORY MID5 INFILTRATION,ALWAYS ON DISCRETE,BUILDING STORY 6 THERMALZONE,2935.68,110.0,0.259,8.827E-005,3.975E-004,0.106,0.000,0.000,0.224,0.000
 ZoneInfiltration Airflow Stats Nominal, BUILDING STORY 6 THERMALZONE LARGEHOTEL GUESTROOM A END_A - STORY MID5 INFILTRATION,ALWAYS ON DISCRETE,BUILDING STORY 6 THERMALZONE,2935.68,110.0,2.087E-002,7.110E-006,3.202E-005,8.532E-003,0.000,0.000,0.224,0.000
 ZoneInfiltration Airflow Stats Nominal, BUILDING STORY 6 THERMALZONE LARGEHOTEL GUESTROOM B END_A - STORY MID5 INFILTRATION,ALWAYS ON DISCRETE,BUILDING STORY 6 THERMALZONE,2935.68,110.0,3.391E-002,1.155E-005,5.202E-005,1.386E-002,0.000,0.000,0.224,0.000
 ZoneInfiltration Airflow Stats Nominal, BUILDING STORY 6 THERMALZONE LARGEHOTEL GUESTROOM C  - STORY MID5 INFILTRATION,ALWAYS ON DISCRETE,BUILDING STORY 6 THERMALZONE,2935.68,110.0,0.259,8.827E-005,3.975E-004,0.106,0.000,0.000,0.224,0.000
 ZoneInfiltration Airflow Stats Nominal, BUILDING STORY 6 THERMALZONE LARGEHOTEL GUESTROOM C END_A - STORY MID5 INFILTRATION,ALWAYS ON DISCRETE,BUILDING STORY 6 THERMALZONE,2935.68,110.0,2.087E-002,7.110E-006,3.202E-005,8.532E-003,0.000,0.000,0.224,0.000
 ZoneInfiltration Airflow Stats Nominal, BUILDING STORY 2 THERMALZONE LARGEHOTEL GUESTROOM A  - STORY MID6 INFILTRATION,ALWAYS ON DISCRETE,BUILDING STORY 2 THERMALZONE,2935.68,112.8,0.259,8.805E-005,3.966E-004,0.106,0.000,0.000,0.224,0.000
 ZoneInfiltration Airflow Stats Nominal, BUILDING STORY 2 THERMALZONE LARGEHOTEL GUESTROOM A END_A - STORY MID6 INFILTRATION,ALWAYS ON DISCRETE,BUILDING STORY 2 THERMALZONE,2935.68,112.8,2.087E-002,7.110E-006,3.202E-005,8.532E-003,0.000,0.000,0.224,0.000
 ZoneInfiltration Airflow Stats Nominal, BUILDING STORY 2 THERMALZONE LARGEHOTEL GUESTROOM A END_B - STORY MID6 INFILTRATION,ALWAYS ON DISCRETE,BUILDING STORY 2 THERMALZONE,2935.68,112.8,2.087E-002,7.110E-006,3.202E-005,8.532E-003,0.000,0.000,0.224,0.000
 ZoneInfiltration Airflow Stats Nominal, BUILDING STORY 2 THERMALZONE LARGEHOTEL GUESTROOM B END_A - STORY MID6 INFILTRATION,ALWAYS ON DISCRETE,BUILDING STORY 2 THERMALZONE,2935.68,112.8,3.391E-002,1.155E-005,5.202E-005,1.386E-002,0.000,0.000,0.224,0.000
 ZoneInfiltration Airflow Stats Nominal, BUILDING STORY 2 THERMALZONE LARGEHOTEL GUESTROOM B END_B - STORY MID6 INFILTRATION,ALWAYS ON DISCRETE,BUILDING STORY 2 THERMALZONE,2935.68,112.8,3.391E-002,1.155E-005,5.202E-005,1.386E-002,0.000,0.000,0.224,0.000
 ZoneInfiltration Airflow Stats Nominal, BUILDING STORY 2 THERMALZONE LARGEHOTEL GUESTROOM C  - STORY MID6 INFILTRATION,ALWAYS ON DISCRETE,BUILDING STORY 2 THERMALZONE,2935.68,112.8,0.259,8.805E-005,3.966E-004,0.106,0.000,0.000,0.224,0.000
 ZoneInfiltration Airflow Stats Nominal, BUILDING STORY 2 THERMALZONE LARGEHOTEL GUESTROOM C END_A - STORY MID6 INFILTRATION,ALWAYS ON DISCRETE,BUILDING STORY 2 THERMALZONE,2935.68,112.8,2.087E-002,7.110E-006,3.202E-005,8.532E-003,0.000,0.000,0.224,0.000
 ZoneInfiltration Airflow Stats Nominal, BUILDING STORY 2 THERMALZONE LARGEHOTEL GUESTROOM C END_B - STORY MID6 INFILTRATION,ALWAYS ON DISCRETE,BUILDING STORY 2 THERMALZONE,2935.68,112.8,2.087E-002,7.110E-006,3.202E-005,8.532E-003,0.000,0.000,0.224,0.000
 ZoneInfiltration Airflow Stats Nominal, BUILDING STORY 5 THERMALZONE LARGEHOTEL GUESTROOM A  - STORY MID7 INFILTRATION,ALWAYS ON DISCRETE,BUILDING STORY 5 THERMALZONE,2935.68,112.8,0.259,8.805E-005,3.966E-004,0.106,0.000,0.000,0.224,0.000
 ZoneInfiltration Airflow Stats Nominal, BUILDING STORY 5 THERMALZONE LARGEHOTEL GUESTROOM A END_A - STORY MID7 INFILTRATION,ALWAYS ON DISCRETE,BUILDING STORY 5 THERMALZONE,2935.68,112.8,2.087E-002,7.110E-006,3.202E-005,8.532E-003,0.000,0.000,0.224,0.000
 ZoneInfiltration Airflow Stats Nominal, BUILDING STORY 5 THERMALZONE LARGEHOTEL GUESTROOM A END_B - STORY MID7 INFILTRATION,ALWAYS ON DISCRETE,BUILDING STORY 5 THERMALZONE,2935.68,112.8,2.087E-002,7.110E-006,3.202E-005,8.532E-003,0.000,0.000,0.224,0.000
 ZoneInfiltration Airflow Stats Nominal, BUILDING STORY 5 THERMALZONE LARGEHOTEL GUESTROOM B END_A - STORY MID7 INFILTRATION,ALWAYS ON DISCRETE,BUILDING STORY 5 THERMALZONE,2935.68,112.8,3.391E-002,1.155E-005,5.202E-005,1.386E-002,0.000,0.000,0.224,0.000
 ZoneInfiltration Airflow Stats Nominal, BUILDING STORY 5 THERMALZONE LARGEHOTEL GUESTROOM B END_B - STORY MID7 INFILTRATION,ALWAYS ON DISCRETE,BUILDING STORY 5 THERMALZONE,2935.68,112.8,3.391E-002,1.155E-005,5.202E-005,1.386E-002,0.000,0.000,0.224,0.000
 ZoneInfiltration Airflow Stats Nominal, BUILDING STORY 5 THERMALZONE LARGEHOTEL GUESTROOM C  - STORY MID7 INFILTRATION,ALWAYS ON DISCRETE,BUILDING STORY 5 THERMALZONE,2935.68,112.8,0.259,8.805E-005,3.966E-004,0.106,0.000,0.000,0.224,0.000
 ZoneInfiltration Airflow Stats Nominal, BUILDING STORY 5 THERMALZONE LARGEHOTEL GUESTROOM C END_A - STORY MID7 INFILTRATION,ALWAYS ON DISCRETE,BUILDING STORY 5 THERMALZONE,2935.68,112.8,2.087E-002,7.110E-006,3.202E-005,8.532E-003,0.000,0.000,0.224,0.000
 ZoneInfiltration Airflow Stats Nominal, BUILDING STORY 5 THERMALZONE LARGEHOTEL GUESTROOM C END_B - STORY MID7 INFILTRATION,ALWAYS ON DISCRETE,BUILDING STORY 5 THERMALZONE,2935.68,112.8,2.087E-002,7.110E-006,3.202E-005,8.532E-003,0.000,0.000,0.224,0.000
 ZoneInfiltration Airflow Stats Nominal, BUILDING STORY 10 THERMALZONE LARGEHOTEL GUESTROOM A  - STORY MID8 INFILTRATION,ALWAYS ON DISCRETE,BUILDING STORY 10 THERMALZONE,2935.68,112.8,1.423,4.846E-004,3.966E-004,0.582,0.000,0.000,0.224,0.000
 ZoneInfiltration Airflow Stats Nominal, BUILDING STORY 10 THERMALZONE LARGEHOTEL GUESTROOM A END_A - STORY MID8 INFILTRATION,ALWAYS ON DISCRETE,BUILDING STORY 10 THERMALZONE,2935.68,112.8,0.115,3.913E-005,3.202E-005,4.696E-002,0.000,0.000,0.224,0.000
 ZoneInfiltration Airflow Stats Nominal, BUILDING STORY 10 THERMALZONE LARGEHOTEL GUESTROOM A END_B - STORY MID8 INFILTRATION,ALWAYS ON DISCRETE,BUILDING STORY 10 THERMALZONE,2935.68,112.8,0.115,3.913E-005,3.202E-005,4.696E-002,0.000,0.000,0.224,0.000
 ZoneInfiltration Airflow Stats Nominal, BUILDING STORY 10 THERMALZONE LARGEHOTEL GUESTROOM B END_A - STORY MID8 INFILTRATION,ALWAYS ON DISCRETE,BUILDING STORY 10 THERMALZONE,2935.68,112.8,0.187,6.357E-005,5.202E-005,7.628E-002,0.000,0.000,0.224,0.000
 ZoneInfiltration Airflow Stats Nominal, BUILDING STORY 10 THERMALZONE LARGEHOTEL GUESTROOM B END_B - STORY MID8 INFILTRATION,ALWAYS ON DISCRETE,BUILDING STORY 10 THERMALZONE,2935.68,112.8,0.187,6.357E-005,5.202E-005,7.628E-002,0.000,0.000,0.224,0.000
 ZoneInfiltration Airflow Stats Nominal, BUILDING STORY 10 THERMALZONE LARGEHOTEL GUESTROOM C  - STORY MID8 INFILTRATION,ALWAYS ON DISCRETE,BUILDING STORY 10 THERMALZONE,2935.68,112.8,1.423,4.846E-004,3.966E-004,0.582,0.000,0.000,0.224,0.000
 ZoneInfiltration Airflow Stats Nominal, BUILDING STORY 10 THERMALZONE LARGEHOTEL GUESTROOM C END_A - STORY MID8 INFILTRATION,ALWAYS ON DISCRETE,BUILDING STORY 10 THERMALZONE,2935.68,112.8,0.115,3.913E-005,3.202E-005,4.696E-002,0.000,0.000,0.224,0.000
 ZoneInfiltration Airflow Stats Nominal, BUILDING STORY 10 THERMALZONE LARGEHOTEL GUESTROOM C END_B - STORY MID8 INFILTRATION,ALWAYS ON DISCRETE,BUILDING STORY 10 THERMALZONE,2935.68,112.8,0.115,3.913E-005,3.202E-005,4.696E-002,0.000,0.000,0.224,0.000
 ZoneInfiltration Airflow Stats Nominal, BUILDING STORY 1 THERMALZONE LARGEHOTEL GUESTROOM A  - STORY TOP INFILTRATION,ALWAYS ON DISCRETE,BUILDING STORY 1 THERMALZONE,2935.68,112.8,6.024E-002,2.052E-005,9.241E-005,2.462E-002,0.000,0.000,0.224,0.000
 ZoneInfiltration Airflow Stats Nominal, BUILDING STORY 1 THERMALZONE LARGEHOTEL GUESTROOM A END_A - STORY TOP INFILTRATION,ALWAYS ON DISCRETE,BUILDING STORY 1 THERMALZONE,2935.68,112.8,4.864E-003,1.657E-006,7.461E-006,1.988E-003,0.000,0.000,0.224,0.000
 ZoneInfiltration Airflow Stats Nominal, BUILDING STORY 1 THERMALZONE LARGEHOTEL GUESTROOM A END_B - STORY TOP INFILTRATION,ALWAYS ON DISCRETE,BUILDING STORY 1 THERMALZONE,2935.68,112.8,4.864E-003,1.657E-006,7.461E-006,1.988E-003,0.000,0.000,0.224,0.000
 ZoneInfiltration Airflow Stats Nominal, BUILDING STORY 1 THERMALZONE LARGEHOTEL GUESTROOM B END_A - STORY TOP INFILTRATION,ALWAYS ON DISCRETE,BUILDING STORY 1 THERMALZONE,2935.68,112.8,7.901E-003,2.691E-006,1.212E-005,3.230E-003,0.000,0.000,0.224,0.000
 ZoneInfiltration Airflow Stats Nominal, BUILDING STORY 1 THERMALZONE LARGEHOTEL GUESTROOM B END_B - STORY TOP INFILTRATION,ALWAYS ON DISCRETE,BUILDING STORY 1 THERMALZONE,2935.68,112.8,7.901E-003,2.691E-006,1.212E-005,3.230E-003,0.000,0.000,0.224,0.000
 ZoneInfiltration Airflow Stats Nominal, BUILDING STORY 1 THERMALZONE LARGEHOTEL GUESTROOM C  - STORY TOP INFILTRATION,ALWAYS ON DISCRETE,BUILDING STORY 1 THERMALZONE,2935.68,112.8,6.024E-002,2.052E-005,9.241E-005,2.462E-002,0.000,0.000,0.224,0.000
 ZoneInfiltration Airflow Stats Nominal, BUILDING STORY 1 THERMALZONE LARGEHOTEL GUESTROOM C END_A - STORY TOP INFILTRATION,ALWAYS ON DISCRETE,BUILDING STORY 1 THERMALZONE,2935.68,112.8,4.864E-003,1.657E-006,7.461E-006,1.988E-003,0.000,0.000,0.224,0.000
 ZoneInfiltration Airflow Stats Nominal, BUILDING STORY 1 THERMALZONE LARGEHOTEL GUESTROOM C END_B - STORY TOP INFILTRATION,ALWAYS ON DISCRETE,BUILDING STORY 1 THERMALZONE,2935.68,112.8,4.864E-003,1.657E-006,7.461E-006,1.988E-003,0.000,0.000,0.224,0.000
! <AirFlow Model>, Simple
 AirFlow Model, Simple
! <RoomAir Model>, Zone Name, Mixing/Mundt/UCSDDV/UCSDCV/UCSDUFI/UCSDUFE/User Defined
RoomAir Model,BUILDING STORY 1 THERMALZONE,Mixing/Well-Stirred
RoomAir Model,BUILDING STORY 10 THERMALZONE,Mixing/Well-Stirred
RoomAir Model,BUILDING STORY 2 THERMALZONE,Mixing/Well-Stirred
RoomAir Model,BUILDING STORY 3 THERMALZONE,Mixing/Well-Stirred
RoomAir Model,BUILDING STORY 4 THERMALZONE,Mixing/Well-Stirred
RoomAir Model,BUILDING STORY 5 THERMALZONE,Mixing/Well-Stirred
RoomAir Model,BUILDING STORY 6 THERMALZONE,Mixing/Well-Stirred
RoomAir Model,BUILDING STORY 7 THERMALZONE,Mixing/Well-Stirred
RoomAir Model,BUILDING STORY 8 THERMALZONE,Mixing/Well-Stirred
RoomAir Model,BUILDING STORY 9 THERMALZONE,Mixing/Well-Stirred
! <AirflowNetwork Model:Control>, No Multizone or Distribution/Multizone with Distribution/Multizone without Distribution/Multizone with Distribution only during Fan Operation
AirflowNetwork Model:Control,NoMultizoneOrDistribution
! <Zone Volume Capacitance Multiplier>, Sensible Heat Capacity Multiplier, Moisture Capacity Multiplier, Carbon Dioxide Capacity Multiplier, Generic Contaminant Capacity Multiplier
Zone Volume Capacitance Multiplier,   1.000 ,   1.000,   1.000,   1.000
! <Load Timesteps in Zone Design Calculation Averaging Window>, Value
 Load Timesteps in Zone Design Calculation Averaging Window,    1
! <Heating Sizing Factor Information>, Sizing Factor ID, Value
 Heating Sizing Factor Information, Global,   1.2500    
 Heating Sizing Factor Information, Zone BUILDING STORY 1 THERMALZONE,   1.2500    
 Heating Sizing Factor Information, Zone BUILDING STORY 10 THERMALZONE,   1.2500    
 Heating Sizing Factor Information, Zone BUILDING STORY 2 THERMALZONE,   1.2500    
 Heating Sizing Factor Information, Zone BUILDING STORY 3 THERMALZONE,   1.2500    
 Heating Sizing Factor Information, Zone BUILDING STORY 4 THERMALZONE,   1.2500    
 Heating Sizing Factor Information, Zone BUILDING STORY 5 THERMALZONE,   1.2500    
 Heating Sizing Factor Information, Zone BUILDING STORY 6 THERMALZONE,   1.2500    
 Heating Sizing Factor Information, Zone BUILDING STORY 7 THERMALZONE,   1.2500    
 Heating Sizing Factor Information, Zone BUILDING STORY 8 THERMALZONE,   1.2500    
 Heating Sizing Factor Information, Zone BUILDING STORY 9 THERMALZONE,   1.2500    
! <Cooling Sizing Factor Information>, Sizing Factor ID, Value
 Cooling Sizing Factor Information, Global,   1.1500    
 Cooling Sizing Factor Information, Zone BUILDING STORY 1 THERMALZONE,   1.1500    
 Cooling Sizing Factor Information, Zone BUILDING STORY 10 THERMALZONE,   1.1500    
 Cooling Sizing Factor Information, Zone BUILDING STORY 2 THERMALZONE,   1.1500    
 Cooling Sizing Factor Information, Zone BUILDING STORY 3 THERMALZONE,   1.1500    
 Cooling Sizing Factor Information, Zone BUILDING STORY 4 THERMALZONE,   1.1500    
 Cooling Sizing Factor Information, Zone BUILDING STORY 5 THERMALZONE,   1.1500    
 Cooling Sizing Factor Information, Zone BUILDING STORY 6 THERMALZONE,   1.1500    
 Cooling Sizing Factor Information, Zone BUILDING STORY 7 THERMALZONE,   1.1500    
 Cooling Sizing Factor Information, Zone BUILDING STORY 8 THERMALZONE,   1.1500    
 Cooling Sizing Factor Information, Zone BUILDING STORY 9 THERMALZONE,   1.1500    
! <Zone Sizing Information>, Zone Name, Load Type, Calc Des Load {W}, User Des Load {W}, Calc Des Air Flow Rate {m3/s}, User Des Air Flow Rate {m3/s}, Design Day Name, Date/Time of Peak, Temperature at Peak {C}, Humidity Ratio at Peak {kgWater/kgDryAir}, Floor Area {m2}, # Occupants, Calc Outdoor Air Flow Rate {m3/s}, Calc DOAS Heat Addition Rate {W}
 Zone Sizing Information, BUILDING STORY 1 THERMALZONE, Cooling, 43367.38069, 49872.48780, 3.58418, 4.12181, BUFFALO NIAGARA INTL AP ANN CLG .4% CONDNS DB=>MWB, 7/21 17:00:00, 28.99800, 1.33455E-002, 2935.68221, 112.80993, 0.79861, 0.00000
 Zone Sizing Information, BUILDING STORY 1 THERMALZONE, Heating, 26475.16088, 33093.95110, 0.76261, 0.95326, BUFFALO NIAGARA INTL AP ANN HTG 99.6% CONDNS DB, 1/21 24:00:00, -16.30000, 9.24091E-004, 2935.68221, 112.80993, 0.79861, 0.00000
 Zone Sizing Information, BUILDING STORY 10 THERMALZONE, Cooling, 122492.35148, 140866.20420, 10.13406, 11.65417, BUFFALO NIAGARA INTL AP ANN CLG .4% CONDNS DB=>MWB, 7/21 15:00:00, 30.30000, 1.33455E-002, 2935.68221, 112.80993, 0.79861, 0.00000
 Zone Sizing Information, BUILDING STORY 10 THERMALZONE, Heating, 201529.24065, 251911.55081, 5.79701, 7.24626, BUFFALO NIAGARA INTL AP ANN HTG 99.6% CONDNS DB, 1/21 24:00:00, -16.30000, 9.24091E-004, 2935.68221, 112.80993, 0.79861, 0.00000
 Zone Sizing Information, BUILDING STORY 2 THERMALZONE, Cooling, 90221.07314, 103754.23412, 7.45697, 8.57552, BUFFALO NIAGARA INTL AP ANN CLG .4% CONDNS DB=>MWB, 7/21 17:00:00, 28.99800, 1.33455E-002, 2935.68221, 112.80993, 0.79861, 0.00000
 Zone Sizing Information, BUILDING STORY 2 THERMALZONE, Heating, 41646.01293, 52057.51616, 1.19937, 1.49921, BUFFALO NIAGARA INTL AP ANN HTG 99.6% CONDNS DB, 1/21 24:00:00, -16.30000, 9.24091E-004, 2935.68221, 112.80993, 0.79861, 0.00000
 Zone Sizing Information, BUILDING STORY 3 THERMALZONE, Cooling, 44427.25344, 51091.34146, 3.30500, 3.80076, BUFFALO NIAGARA INTL AP ANN CLG .4% CONDNS DB=>MWB, 7/21 17:00:00, 28.99800, 1.33455E-002, 2935.68221, 31.59942, 0.74566, 0.00000
 Zone Sizing Information, BUILDING STORY 3 THERMALZONE, Heating, 44268.69620, 55335.87025, 1.94579, 2.43224, BUFFALO NIAGARA INTL AP ANN HTG 99.6% CONDNS DB, 1/21 24:00:00, -16.30000, 9.24091E-004, 2935.68221, 31.59942, 0.74566, 0.00000
 Zone Sizing Information, BUILDING STORY 4 THERMALZONE, Cooling, 44373.19007, 51029.16858, 3.30105, 3.79620, BUFFALO NIAGARA INTL AP ANN CLG .4% CONDNS DB=>MWB, 7/21 17:00:00, 28.99800, 1.33455E-002, 2935.68221, 31.59942, 0.74566, 0.00000
 Zone Sizing Information, BUILDING STORY 4 THERMALZONE, Heating, 46312.95399, 57891.19248, 2.03558, 2.54448, BUFFALO NIAGARA INTL AP ANN HTG 99.6% CONDNS DB, 1/21 24:00:00, -16.30000, 9.24091E-004, 2935.68221, 31.59942, 0.74566, 0.00000
 Zone Sizing Information, BUILDING STORY 5 THERMALZONE, Cooling, 87830.70177, 101005.30704, 7.25988, 8.34886, BUFFALO NIAGARA INTL AP ANN CLG .4% CONDNS DB=>MWB, 7/21 17:00:00, 28.99800, 1.33455E-002, 2935.68221, 112.80993, 0.79861, 0.00000
 Zone Sizing Information, BUILDING STORY 5 THERMALZONE, Heating, 48028.89802, 60036.12252, 1.38308, 1.72885, BUFFALO NIAGARA INTL AP ANN HTG 99.6% CONDNS DB, 1/21 24:00:00, -16.30000, 9.24091E-004, 2935.68221, 112.80993, 0.79861, 0.00000
 Zone Sizing Information, BUILDING STORY 6 THERMALZONE, Cooling, 86272.79801, 99213.71771, 7.13117, 8.20085, BUFFALO NIAGARA INTL AP ANN CLG .4% CONDNS DB=>MWB, 7/21 17:00:00, 28.99800, 1.33455E-002, 2935.68221, 109.95733, 0.79675, 0.00000
 Zone Sizing Information, BUILDING STORY 6 THERMALZONE, Heating, 49471.21856, 61839.02320, 1.42458, 1.78073, BUFFALO NIAGARA INTL AP ANN HTG 99.6% CONDNS DB, 1/21 24:00:00, -16.30000, 9.24091E-004, 2935.68221, 109.95733, 0.79675, 0.00000
 Zone Sizing Information, BUILDING STORY 7 THERMALZONE, Cooling, 214092.05984, 246205.86882, 15.97031, 18.36586, BUFFALO NIAGARA INTL AP ANN CLG .4% CONDNS DB=>MWB, 7/21 17:00:00, 28.99800, 1.33455E-002, 2935.68221, 1574.49011, 13.82324, 0.00000
 Zone Sizing Information, BUILDING STORY 7 THERMALZONE, Heating, 50703.58597, 63379.48246, 2.22842, 13.82324, BUFFALO NIAGARA INTL AP ANN HTG 99.6% CONDNS DB, 1/21 24:00:00, -16.30000, 9.24091E-004, 2935.68221, 1574.49011, 13.82324, 0.00000
 Zone Sizing Information, BUILDING STORY 8 THERMALZONE, Cooling, 171943.28649, 197734.77946, 12.81689, 14.73943, BUFFALO NIAGARA INTL AP ANN CLG .4% CONDNS DB=>MWB, 7/21 15:00:00, 30.30000, 1.33455E-002, 2935.68221, 886.04683, 6.30779, 0.00000
 Zone Sizing Information, BUILDING STORY 8 THERMALZONE, Heating, 190984.70722, 238730.88402, 8.38428, 10.48036, BUFFALO NIAGARA INTL AP ANN HTG 99.6% CONDNS DB, 1/21 24:00:00, -16.30000, 9.24091E-004, 2935.68221, 886.04683, 6.30779, 0.00000
 Zone Sizing Information, BUILDING STORY 9 THERMALZONE, Cooling, 367152.01721, 422224.81979, 27.37491, 31.48115, BUFFALO NIAGARA INTL AP ANN CLG .4% CONDNS DB=>MWB, 7/21 17:00:00, 28.99800, 1.33455E-002, 2935.68221, 899.26684, 9.41913, 0.00000
 Zone Sizing Information, BUILDING STORY 9 THERMALZONE, Heating, 50895.06279, 63618.82849, 2.23677, 9.41913, BUFFALO NIAGARA INTL AP ANN HTG 99.6% CONDNS DB, 1/21 24:00:00, -16.30000, 9.24091E-004, 2935.68221, 899.26684, 9.41913, 0.00000
! <System Sizing Information>, System Name, Load Type, Peak Load Kind, User Design Capacity, Calc Des Air Flow Rate [m3/s], User Des Air Flow Rate [m3/s], Design Day Name, Date/Time of Peak
 System Sizing Information, 1 ZONE VAV, Cooling, Sensible, 54707.79, 3.80076, 3.80076, BUFFALO NIAGARA INTL AP ANN CLG .4% CONDNS DB=>MWB, 7/21 00:00:00
 System Sizing Information, 1 ZONE VAV, Heating, Sensible, 9270.78, 2.43224, 2.43224, BUFFALO NIAGARA INTL AP ANN HTG 99.6% CONDNS DB, 1/21 01:00:00
 System Sizing Information, 1 ZONE VAV 1, Cooling, Sensible, 54696.20, 3.79620, 3.79620, BUFFALO NIAGARA INTL AP ANN CLG .4% CONDNS DB=>MWB, 7/21 00:00:00
 System Sizing Information, 1 ZONE VAV 1, Heating, Sensible, 8184.06, 2.54448, 2.54448, BUFFALO NIAGARA INTL AP ANN HTG 99.6% CONDNS DB, 1/21 01:00:00
 System Sizing Information, 1 ZONE VAV 2, Cooling, Sensible, 344199.32, 18.36586, 18.36586, BUFFALO NIAGARA INTL AP ANN CLG .4% CONDNS DB=>MWB, 7/21 00:00:00
 System Sizing Information, 1 ZONE VAV 2, Heating, Sensible, 474150.75, 13.82324, 13.82324, BUFFALO NIAGARA INTL AP ANN HTG 99.6% CONDNS DB, 1/21 01:00:00
 System Sizing Information, 1 ZONE VAV 3, Cooling, Sensible, 241744.64, 14.73943, 14.73943, BUFFALO NIAGARA INTL AP ANN CLG .4% CONDNS DB=>MWB, 7/21 00:00:00
 System Sizing Information, 1 ZONE VAV 3, Heating, Sensible, 176070.46, 10.48036, 10.48036, BUFFALO NIAGARA INTL AP ANN HTG 99.6% CONDNS DB, 1/21 01:00:00
 System Sizing Information, 1 ZONE VAV 4, Cooling, Sensible, 484326.86, 31.48115, 31.48115, BUFFALO NIAGARA INTL AP ANN CLG .4% CONDNS DB=>MWB, 7/21 00:00:00
 System Sizing Information, 1 ZONE VAV 4, Heating, Sensible, 323085.43, 9.41913, 9.41913, BUFFALO NIAGARA INTL AP ANN HTG 99.6% CONDNS DB, 1/21 01:00:00
! <Component Sizing Information>, Component Type, Component Name, Input Field Description, Value
 Component Sizing Information, ZoneHVAC:PackagedTerminalAirConditioner, BUILDING STORY 1 THERMALZONE PTAC, Design Size Cooling Supply Air Flow Rate [m3/s], 4.12181
 Component Sizing Information, ZoneHVAC:PackagedTerminalAirConditioner, BUILDING STORY 1 THERMALZONE PTAC, Design Size Heating Supply Air Flow Rate [m3/s], 4.12181
 Component Sizing Information, ZoneHVAC:PackagedTerminalAirConditioner, BUILDING STORY 1 THERMALZONE PTAC, Design Size No Load Supply Air Flow Rate [m3/s], 4.12181
 Component Sizing Information, ZoneHVAC:PackagedTerminalAirConditioner, BUILDING STORY 1 THERMALZONE PTAC, Design Size Outdoor Air Flow Rate During Cooling Operation [m3/s], 0.79861
 Component Sizing Information, ZoneHVAC:PackagedTerminalAirConditioner, BUILDING STORY 1 THERMALZONE PTAC, Design Size Outdoor Air Flow Rate During Heating Operation [m3/s], 0.79861
 Component Sizing Information, ZoneHVAC:PackagedTerminalAirConditioner, BUILDING STORY 1 THERMALZONE PTAC, Design Size Outdoor Air Flow Rate When No Cooling or Heating is Needed [m3/s], 0.79861
 Component Sizing Information, Coil:Heating:Water, HOT WATER LOOP WATER HTG COIL, Design Size Rated Capacity [W], 178751.84072
 Component Sizing Information, Coil:Heating:Water, HOT WATER LOOP WATER HTG COIL, Design Size Maximum Water Flow Rate [m3/s], 3.90981E-003
 Component Sizing Information, Coil:Heating:Water, HOT WATER LOOP WATER HTG COIL, Design Size U-Factor Times Area Value [W/K], 4252.63616
! <Water Heating Coil Capacity Information>,Component Type,Name,Nominal Total Capacity {W}
Water Heating Coil Capacity Information,Coil:Heating:Water,HOT WATER LOOP WATER HTG COIL,171536.35
 Component Sizing Information, Coil:Cooling:DX:SingleSpeed, BUILDING STORY 1 THERMALZONE PTAC 1SPD DX AC CLG COIL, Design Size Rated Air Flow Rate [m3/s], 4.12181
 Component Sizing Information, Coil:Cooling:DX:SingleSpeed, BUILDING STORY 1 THERMALZONE PTAC 1SPD DX AC CLG COIL, Design Size Gross Rated Total Cooling Capacity [W], 74387.29146
 Component Sizing Information, Coil:Cooling:DX:SingleSpeed, BUILDING STORY 1 THERMALZONE PTAC 1SPD DX AC CLG COIL, Design Size Gross Rated Sensible Heat Ratio, 0.80023
! <DX Cooling Coil Standard Rating Information>, Component Type, Component Name, Standard Rating (Net) Cooling Capacity {W}, Standard Rated Net COP {W/W}, EER {Btu/W-h}, SEER {Btu/W-h}, IEER {Btu/W-h}
 DX Cooling Coil Standard Rating Information, Coil:Cooling:DX:SingleSpeed, BUILDING STORY 1 THERMALZONE PTAC 1SPD DX AC CLG COIL, 71187.9, 2.54, 8.68, 9.21, 8.78
 Component Sizing Information, Fan:ConstantVolume, BUILDING STORY 1 THERMALZONE PTAC FAN, Design Size Maximum Flow Rate [m3/s], 4.12181
 Component Sizing Information, ZoneHVAC:PackagedTerminalAirConditioner, BUILDING STORY 10 THERMALZONE PTAC, Design Size Cooling Supply Air Flow Rate [m3/s], 11.65417
 Component Sizing Information, ZoneHVAC:PackagedTerminalAirConditioner, BUILDING STORY 10 THERMALZONE PTAC, Design Size Heating Supply Air Flow Rate [m3/s], 11.65417
 Component Sizing Information, ZoneHVAC:PackagedTerminalAirConditioner, BUILDING STORY 10 THERMALZONE PTAC, Design Size No Load Supply Air Flow Rate [m3/s], 11.65417
 Component Sizing Information, ZoneHVAC:PackagedTerminalAirConditioner, BUILDING STORY 10 THERMALZONE PTAC, Design Size Outdoor Air Flow Rate During Cooling Operation [m3/s], 0.79861
 Component Sizing Information, ZoneHVAC:PackagedTerminalAirConditioner, BUILDING STORY 10 THERMALZONE PTAC, Design Size Outdoor Air Flow Rate During Heating Operation [m3/s], 0.79861
 Component Sizing Information, ZoneHVAC:PackagedTerminalAirConditioner, BUILDING STORY 10 THERMALZONE PTAC, Design Size Outdoor Air Flow Rate When No Cooling or Heating is Needed [m3/s], 0.79861
 Component Sizing Information, Coil:Heating:Water, HOT WATER LOOP WATER HTG COIL 1, Design Size Rated Capacity [W], 440768.28859
 Component Sizing Information, Coil:Heating:Water, HOT WATER LOOP WATER HTG COIL 1, Design Size Maximum Water Flow Rate [m3/s], 9.64085E-003
 Component Sizing Information, Coil:Heating:Water, HOT WATER LOOP WATER HTG COIL 1, Design Size U-Factor Times Area Value [W/K], 11012.40254
Water Heating Coil Capacity Information,Coil:Heating:Water,HOT WATER LOOP WATER HTG COIL 1,454012.44
 Component Sizing Information, Coil:Cooling:DX:SingleSpeed, BUILDING STORY 10 THERMALZONE PTAC 1SPD DX AC CLG COIL, Design Size Rated Air Flow Rate [m3/s], 11.65417
 Component Sizing Information, Coil:Cooling:DX:SingleSpeed, BUILDING STORY 10 THERMALZONE PTAC 1SPD DX AC CLG COIL, Design Size Gross Rated Total Cooling Capacity [W], 209786.61058
 Component Sizing Information, Coil:Cooling:DX:SingleSpeed, BUILDING STORY 10 THERMALZONE PTAC 1SPD DX AC CLG COIL, Design Size Gross Rated Sensible Heat Ratio, 0.80009
 DX Cooling Coil Standard Rating Information, Coil:Cooling:DX:SingleSpeed, BUILDING STORY 10 THERMALZONE PTAC 1SPD DX AC CLG COIL, 200740.7, 2.54, 8.68, 9.21, 8.77
 Component Sizing Information, Fan:ConstantVolume, BUILDING STORY 10 THERMALZONE PTAC FAN, Design Size Maximum Flow Rate [m3/s], 11.65417
 Component Sizing Information, ZoneHVAC:PackagedTerminalAirConditioner, BUILDING STORY 2 THERMALZONE PTAC, Design Size Cooling Supply Air Flow Rate [m3/s], 8.57552
 Component Sizing Information, ZoneHVAC:PackagedTerminalAirConditioner, BUILDING STORY 2 THERMALZONE PTAC, Design Size Heating Supply Air Flow Rate [m3/s], 8.57552
 Component Sizing Information, ZoneHVAC:PackagedTerminalAirConditioner, BUILDING STORY 2 THERMALZONE PTAC, Design Size No Load Supply Air Flow Rate [m3/s], 8.57552
 Component Sizing Information, ZoneHVAC:PackagedTerminalAirConditioner, BUILDING STORY 2 THERMALZONE PTAC, Design Size Outdoor Air Flow Rate During Cooling Operation [m3/s], 0.79861
 Component Sizing Information, ZoneHVAC:PackagedTerminalAirConditioner, BUILDING STORY 2 THERMALZONE PTAC, Design Size Outdoor Air Flow Rate During Heating Operation [m3/s], 0.79861
 Component Sizing Information, ZoneHVAC:PackagedTerminalAirConditioner, BUILDING STORY 2 THERMALZONE PTAC, Design Size Outdoor Air Flow Rate When No Cooling or Heating is Needed [m3/s], 0.79861
 Component Sizing Information, Coil:Heating:Water, HOT WATER LOOP WATER HTG COIL 2, Design Size Rated Capacity [W], 333420.82800
 Component Sizing Information, Coil:Heating:Water, HOT WATER LOOP WATER HTG COIL 2, Design Size Maximum Water Flow Rate [m3/s], 7.29286E-003
 Component Sizing Information, Coil:Heating:Water, HOT WATER LOOP WATER HTG COIL 2, Design Size U-Factor Times Area Value [W/K], 8246.21072
Water Heating Coil Capacity Information,Coil:Heating:Water,HOT WATER LOOP WATER HTG COIL 2,338588.67
 Component Sizing Information, Coil:Cooling:DX:SingleSpeed, BUILDING STORY 2 THERMALZONE PTAC 1SPD DX AC CLG COIL, Design Size Rated Air Flow Rate [m3/s], 8.57552
 Component Sizing Information, Coil:Cooling:DX:SingleSpeed, BUILDING STORY 2 THERMALZONE PTAC 1SPD DX AC CLG COIL, Design Size Gross Rated Total Cooling Capacity [W], 141955.22471
 Component Sizing Information, Coil:Cooling:DX:SingleSpeed, BUILDING STORY 2 THERMALZONE PTAC 1SPD DX AC CLG COIL, Design Size Gross Rated Sensible Heat Ratio, 0.80066
 DX Cooling Coil Standard Rating Information, Coil:Cooling:DX:SingleSpeed, BUILDING STORY 2 THERMALZONE PTAC 1SPD DX AC CLG COIL, 135301.0, 2.51, 8.56, 9.08, 8.59
 Component Sizing Information, Fan:ConstantVolume, BUILDING STORY 2 THERMALZONE PTAC FAN, Design Size Maximum Flow Rate [m3/s], 8.57552
 Component Sizing Information, AirTerminal:SingleDuct:VAV:Reheat, BUILDING STORY 3 THERMALZONE VAV TERMINAL, Design Size Maximum Air Flow Rate [m3/s], 3.80076
 Component Sizing Information, AirTerminal:SingleDuct:VAV:Reheat, BUILDING STORY 3 THERMALZONE VAV TERMINAL, Design Size Constant Minimum Air Flow Fraction, 0.58856
 Component Sizing Information, AirTerminal:SingleDuct:VAV:Reheat, BUILDING STORY 3 THERMALZONE VAV TERMINAL, User-Specified Constant Minimum Air Flow Fraction, 0.30000
 Component Sizing Information, AirTerminal:SingleDuct:VAV:Reheat, BUILDING STORY 3 THERMALZONE VAV TERMINAL, Design Size Minimum Air Flow Rate [m3/s], 1.14023
 Component Sizing Information, AirTerminal:SingleDuct:VAV:Reheat, BUILDING STORY 3 THERMALZONE VAV TERMINAL, Design Size Maximum Flow per Zone Floor Area during Reheat [m3/s-m2], 3.88403E-004
 Component Sizing Information, AirTerminal:SingleDuct:VAV:Reheat, BUILDING STORY 3 THERMALZONE VAV TERMINAL, Design Size Maximum Flow Fraction during Reheat [], 0.30000
 Component Sizing Information, AirTerminal:SingleDuct:VAV:Reheat, BUILDING STORY 3 THERMALZONE VAV TERMINAL, Design Size Maximum Reheat Water Flow Rate [m3/s], 1.73257E-003
 Component Sizing Information, AirTerminal:SingleDuct:VAV:Reheat, BUILDING STORY 3 THERMALZONE VAV TERMINAL, Design Size Reheat Coil Sizing Air Volume Flow Rate [m3/s], 2.43224
 Component Sizing Information, AirTerminal:SingleDuct:VAV:Reheat, BUILDING STORY 3 THERMALZONE VAV TERMINAL, Design Size Reheat Coil Sizing Inlet Air Temperature [C], 12.77778
 Component Sizing Information, AirTerminal:SingleDuct:VAV:Reheat, BUILDING STORY 3 THERMALZONE VAV TERMINAL, Design Size Reheat Coil Sizing Inlet Air Humidity Ratio [kgWater/kgDryAir], 8.00000E-003
 Component Sizing Information, Coil:Heating:Water, BUILDING STORY 3 THERMALZONE REHEAT COIL, Design Size Rated Capacity [W], 79211.16797
 Component Sizing Information, Coil:Heating:Water, BUILDING STORY 3 THERMALZONE REHEAT COIL, Design Size Maximum Water Flow Rate [m3/s], 1.73257E-003
 Component Sizing Information, Coil:Heating:Water, BUILDING STORY 3 THERMALZONE REHEAT COIL, Design Size U-Factor Times Area Value [W/K], 1644.52100
Water Heating Coil Capacity Information,Coil:Heating:Water,BUILDING STORY 3 THERMALZONE REHEAT COIL,59134.21
 Component Sizing Information, AirTerminal:SingleDuct:VAV:Reheat, BUILDING STORY 4 THERMALZONE VAV TERMINAL, Design Size Maximum Air Flow Rate [m3/s], 3.79620
 Component Sizing Information, AirTerminal:SingleDuct:VAV:Reheat, BUILDING STORY 4 THERMALZONE VAV TERMINAL, Design Size Constant Minimum Air Flow Fraction, 0.58927
 Component Sizing Information, AirTerminal:SingleDuct:VAV:Reheat, BUILDING STORY 4 THERMALZONE VAV TERMINAL, User-Specified Constant Minimum Air Flow Fraction, 0.30000
 Component Sizing Information, AirTerminal:SingleDuct:VAV:Reheat, BUILDING STORY 4 THERMALZONE VAV TERMINAL, Design Size Minimum Air Flow Rate [m3/s], 1.13886
 Component Sizing Information, AirTerminal:SingleDuct:VAV:Reheat, BUILDING STORY 4 THERMALZONE VAV TERMINAL, Design Size Maximum Flow per Zone Floor Area during Reheat [m3/s-m2], 3.87937E-004
 Component Sizing Information, AirTerminal:SingleDuct:VAV:Reheat, BUILDING STORY 4 THERMALZONE VAV TERMINAL, Design Size Maximum Flow Fraction during Reheat [], 0.30000
 Component Sizing Information, AirTerminal:SingleDuct:VAV:Reheat, BUILDING STORY 4 THERMALZONE VAV TERMINAL, Design Size Maximum Reheat Water Flow Rate [m3/s], 1.81246E-003
 Component Sizing Information, AirTerminal:SingleDuct:VAV:Reheat, BUILDING STORY 4 THERMALZONE VAV TERMINAL, Design Size Reheat Coil Sizing Air Volume Flow Rate [m3/s], 2.54448
 Component Sizing Information, AirTerminal:SingleDuct:VAV:Reheat, BUILDING STORY 4 THERMALZONE VAV TERMINAL, Design Size Reheat Coil Sizing Inlet Air Temperature [C], 12.77778
 Component Sizing Information, AirTerminal:SingleDuct:VAV:Reheat, BUILDING STORY 4 THERMALZONE VAV TERMINAL, Design Size Reheat Coil Sizing Inlet Air Humidity Ratio [kgWater/kgDryAir], 8.00000E-003
 Component Sizing Information, Coil:Heating:Water, BUILDING STORY 4 THERMALZONE REHEAT COIL, Design Size Rated Capacity [W], 82863.66884
 Component Sizing Information, Coil:Heating:Water, BUILDING STORY 4 THERMALZONE REHEAT COIL, Design Size Maximum Water Flow Rate [m3/s], 1.81246E-003
 Component Sizing Information, Coil:Heating:Water, BUILDING STORY 4 THERMALZONE REHEAT COIL, Design Size U-Factor Times Area Value [W/K], 1720.33383
Water Heating Coil Capacity Information,Coil:Heating:Water,BUILDING STORY 4 THERMALZONE REHEAT COIL,60605.40
 Component Sizing Information, ZoneHVAC:PackagedTerminalAirConditioner, BUILDING STORY 5 THERMALZONE PTAC, Design Size Cooling Supply Air Flow Rate [m3/s], 8.34886
 Component Sizing Information, ZoneHVAC:PackagedTerminalAirConditioner, BUILDING STORY 5 THERMALZONE PTAC, Design Size Heating Supply Air Flow Rate [m3/s], 8.34886
 Component Sizing Information, ZoneHVAC:PackagedTerminalAirConditioner, BUILDING STORY 5 THERMALZONE PTAC, Design Size No Load Supply Air Flow Rate [m3/s], 8.34886
 Component Sizing Information, ZoneHVAC:PackagedTerminalAirConditioner, BUILDING STORY 5 THERMALZONE PTAC, Design Size Outdoor Air Flow Rate During Cooling Operation [m3/s], 0.79861
 Component Sizing Information, ZoneHVAC:PackagedTerminalAirConditioner, BUILDING STORY 5 THERMALZONE PTAC, Design Size Outdoor Air Flow Rate During Heating Operation [m3/s], 0.79861
 Component Sizing Information, ZoneHVAC:PackagedTerminalAirConditioner, BUILDING STORY 5 THERMALZONE PTAC, Design Size Outdoor Air Flow Rate When No Cooling or Heating is Needed [m3/s], 0.79861
 Component Sizing Information, Coil:Heating:Water, HOT WATER LOOP WATER HTG COIL 3, Design Size Rated Capacity [W], 325572.74849
 Component Sizing Information, Coil:Heating:Water, HOT WATER LOOP WATER HTG COIL 3, Design Size Maximum Water Flow Rate [m3/s], 7.12120E-003
 Component Sizing Information, Coil:Heating:Water, HOT WATER LOOP WATER HTG COIL 3, Design Size U-Factor Times Area Value [W/K], 8045.64242
Water Heating Coil Capacity Information,Coil:Heating:Water,HOT WATER LOOP WATER HTG COIL 3,330170.50
 Component Sizing Information, Coil:Cooling:DX:SingleSpeed, BUILDING STORY 5 THERMALZONE PTAC 1SPD DX AC CLG COIL, Design Size Rated Air Flow Rate [m3/s], 8.34886
 Component Sizing Information, Coil:Cooling:DX:SingleSpeed, BUILDING STORY 5 THERMALZONE PTAC 1SPD DX AC CLG COIL, Design Size Gross Rated Total Cooling Capacity [W], 138203.25075
 Component Sizing Information, Coil:Cooling:DX:SingleSpeed, BUILDING STORY 5 THERMALZONE PTAC 1SPD DX AC CLG COIL, Design Size Gross Rated Sensible Heat Ratio, 0.80066
 DX Cooling Coil Standard Rating Information, Coil:Cooling:DX:SingleSpeed, BUILDING STORY 5 THERMALZONE PTAC 1SPD DX AC CLG COIL, 131724.9, 2.51, 8.56, 9.08, 8.59
 Component Sizing Information, Fan:ConstantVolume, BUILDING STORY 5 THERMALZONE PTAC FAN, Design Size Maximum Flow Rate [m3/s], 8.34886
 Component Sizing Information, ZoneHVAC:PackagedTerminalAirConditioner, BUILDING STORY 6 THERMALZONE PTAC, Design Size Cooling Supply Air Flow Rate [m3/s], 8.20085
 Component Sizing Information, ZoneHVAC:PackagedTerminalAirConditioner, BUILDING STORY 6 THERMALZONE PTAC, Design Size Heating Supply Air Flow Rate [m3/s], 8.20085
 Component Sizing Information, ZoneHVAC:PackagedTerminalAirConditioner, BUILDING STORY 6 THERMALZONE PTAC, Design Size No Load Supply Air Flow Rate [m3/s], 8.20085
 Component Sizing Information, ZoneHVAC:PackagedTerminalAirConditioner, BUILDING STORY 6 THERMALZONE PTAC, Design Size Outdoor Air Flow Rate During Cooling Operation [m3/s], 0.79675
 Component Sizing Information, ZoneHVAC:PackagedTerminalAirConditioner, BUILDING STORY 6 THERMALZONE PTAC, Design Size Outdoor Air Flow Rate During Heating Operation [m3/s], 0.79675
 Component Sizing Information, ZoneHVAC:PackagedTerminalAirConditioner, BUILDING STORY 6 THERMALZONE PTAC, Design Size Outdoor Air Flow Rate When No Cooling or Heating is Needed [m3/s], 0.79675
 Component Sizing Information, Coil:Heating:Water, HOT WATER LOOP WATER HTG COIL 4, Design Size Rated Capacity [W], 320354.63137
 Component Sizing Information, Coil:Heating:Water, HOT WATER LOOP WATER HTG COIL 4, Design Size Maximum Water Flow Rate [m3/s], 7.00707E-003
 Component Sizing Information, Coil:Heating:Water, HOT WATER LOOP WATER HTG COIL 4, Design Size U-Factor Times Area Value [W/K], 7912.31527
Water Heating Coil Capacity Information,Coil:Heating:Water,HOT WATER LOOP WATER HTG COIL 4,324604.58
 Component Sizing Information, Coil:Cooling:DX:SingleSpeed, BUILDING STORY 6 THERMALZONE PTAC 1SPD DX AC CLG COIL, Design Size Rated Air Flow Rate [m3/s], 8.20085
 Component Sizing Information, Coil:Cooling:DX:SingleSpeed, BUILDING STORY 6 THERMALZONE PTAC 1SPD DX AC CLG COIL, Design Size Gross Rated Total Cooling Capacity [W], 135753.17446
 Component Sizing Information, Coil:Cooling:DX:SingleSpeed, BUILDING STORY 6 THERMALZONE PTAC 1SPD DX AC CLG COIL, Design Size Gross Rated Sensible Heat Ratio, 0.80066
 DX Cooling Coil Standard Rating Information, Coil:Cooling:DX:SingleSpeed, BUILDING STORY 6 THERMALZONE PTAC 1SPD DX AC CLG COIL, 129389.6, 2.51, 8.56, 9.08, 8.59
 Component Sizing Information, Fan:ConstantVolume, BUILDING STORY 6 THERMALZONE PTAC FAN, Design Size Maximum Flow Rate [m3/s], 8.20085
 Component Sizing Information, AirTerminal:SingleDuct:VAV:Reheat, BUILDING STORY 7 THERMALZONE VAV TERMINAL, Design Size Maximum Air Flow Rate [m3/s], 18.36586
 Component Sizing Information, AirTerminal:SingleDuct:VAV:Reheat, BUILDING STORY 7 THERMALZONE VAV TERMINAL, Design Size Constant Minimum Air Flow Fraction, 0.12180
 Component Sizing Information, AirTerminal:SingleDuct:VAV:Reheat, BUILDING STORY 7 THERMALZONE VAV TERMINAL, User-Specified Constant Minimum Air Flow Fraction, 0.70000
 Component Sizing Information, AirTerminal:SingleDuct:VAV:Reheat, BUILDING STORY 7 THERMALZONE VAV TERMINAL, Design Size Minimum Air Flow Rate [m3/s], 12.85610
 Component Sizing Information, AirTerminal:SingleDuct:VAV:Reheat, BUILDING STORY 7 THERMALZONE VAV TERMINAL, Design Size Maximum Flow per Zone Floor Area during Reheat [m3/s-m2], 4.37925E-003
 Component Sizing Information, AirTerminal:SingleDuct:VAV:Reheat, BUILDING STORY 7 THERMALZONE VAV TERMINAL, Design Size Maximum Flow Fraction during Reheat [], 0.70000
 Component Sizing Information, AirTerminal:SingleDuct:VAV:Reheat, BUILDING STORY 7 THERMALZONE VAV TERMINAL, Design Size Maximum Reheat Water Flow Rate [m3/s], 4.14511E-003
[...]
Water Heating Coil Capacity Information,Coil:Heating:Water,1 ZONE VAV 3 MAIN HTG COIL,101259.36
 Component Sizing Information, Fan:VariableVolume, 1 ZONE VAV 3 FAN, Design Size Maximum Flow Rate [m3/s], 14.73943
 Component Sizing Information, Controller:WaterCoil, 1 ZONE VAV 3 CLG COIL CONTROLLER, Maximum Actuated Flow [m3/s], 1.72410E-002
 Component Sizing Information, Controller:WaterCoil, 1 ZONE VAV 3 CLG COIL CONTROLLER, Controller Convergence Tolerance, 2.76196E-005
 Component Sizing Information, Controller:WaterCoil, 1 ZONE VAV 3 MAIN HTG COIL CONTROLLER, Maximum Actuated Flow [m3/s], 3.31752E-003
 Component Sizing Information, Controller:OutdoorAir, 1 ZONE VAV 4 OA CONTROLLER, Maximum Outdoor Air Flow Rate [m3/s], 31.48115
 Component Sizing Information, Controller:OutdoorAir, 1 ZONE VAV 4 OA CONTROLLER, Minimum Outdoor Air Flow Rate [m3/s], 9.41913
 Component Sizing Information, Coil:Cooling:Water, 1 ZONE VAV 4 CLG COIL, Design Size Design Inlet Air Temperature [C], 25.87272
 Component Sizing Information, Coil:Cooling:Water, 1 ZONE VAV 4 CLG COIL, Design Size Design Inlet Water Temperature [C], 6.66667
 Component Sizing Information, Coil:Cooling:Water, 1 ZONE VAV 4 CLG COIL, Design Size Design Outlet Air Temperature [C], 11.44176
 Component Sizing Information, Coil:Cooling:Water, 1 ZONE VAV 4 CLG COIL, Design Size Design Inlet Air Humidity Ratio, 1.06498E-002
 Component Sizing Information, Coil:Cooling:Water, 1 ZONE VAV 4 CLG COIL, Design Size Design Outlet Air Humidity Ratio, 8.50000E-003
 Component Sizing Information, Coil:Cooling:Water, 1 ZONE VAV 4 CLG COIL, Design Size Design Coil Load [W], 746848.79754
 Component Sizing Information, Coil:Cooling:Water, 1 ZONE VAV 4 CLG COIL, Design Size Design Water Flow Rate [m3/s], 3.17098E-002
 Component Sizing Information, Coil:Cooling:Water, 1 ZONE VAV 4 CLG COIL, Design Size Design Air Flow Rate [m3/s], 31.48115
Water Cooling Coil Capacity Information,Coil:Cooling:Water,1 ZONE VAV 4 CLG COIL,870582.92,579499.10,291083.83,0.67,101765.70,1032.16
 Component Sizing Information, Coil:Heating:Water, 1 ZONE VAV 4 MAIN HTG COIL, Design Size Rated Capacity [W], 322841.10178
 Component Sizing Information, Coil:Heating:Water, 1 ZONE VAV 4 MAIN HTG COIL, Design Size Maximum Water Flow Rate [m3/s], 7.06145E-003
 Component Sizing Information, Coil:Heating:Water, 1 ZONE VAV 4 MAIN HTG COIL, Design Size U-Factor Times Area Value [W/K], 4244.32702
Water Heating Coil Capacity Information,Coil:Heating:Water,1 ZONE VAV 4 MAIN HTG COIL,215750.26
 Component Sizing Information, Fan:VariableVolume, 1 ZONE VAV 4 FAN, Design Size Maximum Flow Rate [m3/s], 31.48115
 Component Sizing Information, Controller:WaterCoil, 1 ZONE VAV 4 CLG COIL CONTROLLER, Maximum Actuated Flow [m3/s], 3.17098E-002
 Component Sizing Information, Controller:WaterCoil, 1 ZONE VAV 4 CLG COIL CONTROLLER, Controller Convergence Tolerance, 1.50172E-005
 Component Sizing Information, Controller:WaterCoil, 1 ZONE VAV 4 MAIN HTG COIL CONTROLLER, Maximum Actuated Flow [m3/s], 7.06145E-003
Water Heater Information,WaterHeater:Mixed,6.0GAL ELECTRICITY BOOSTER WATER HEATER - 50KBTU/HR,2.2712E-002,14775.4,33.496,0.9509
Water Heater Information,WaterHeater:Mixed,263GAL NATURALGAS WATER HEATER - 263KBTU/HR,0.9939,76955.3,0.670,0.5792
Water Heater Information,WaterHeater:Mixed,517GAL ELECTRICITY WATER HEATER - 517KBTU/HR,1.9579,151586.6,0.443,1.3302
Water Heater Information,WaterHeater:Mixed,392GAL ELECTRICITY WATER HEATER - 392KBTU/HR,1.4854,115008.0,0.582,1.1639
 Component Sizing Information, Pump:VariableSpeed, CHILLED WATER LOOP SECONDARY PUMP, Design Flow Rate [m3/s], 8.14381E-002
 Component Sizing Information, Pump:VariableSpeed, CHILLED WATER LOOP SECONDARY PUMP, Design Power Consumption [W], 15604.10404
 Component Sizing Information, PlantLoop, CHILLED WATER LOOP, Maximum Loop Flow Rate [m3/s], 8.14381E-002
 Component Sizing Information, PlantLoop, CHILLED WATER LOOP, Plant Loop Volume [m3], 9.77258
 Component Sizing Information, Pump:ConstantSpeed, CHILLED WATER LOOP PRIMARY PUMP, Design Flow Rate [m3/s], 8.14381E-002
 Component Sizing Information, Pump:ConstantSpeed, CHILLED WATER LOOP PRIMARY PUMP, Design Power Consumption [W], 5201.36801
 Component Sizing Information, Chiller:Electric:EIR, 90.1-2004 WATERCOOLED  ROTARY SCREW CHILLER 0, Design Size Reference Chilled Water Flow Rate [m3/s], 8.14381E-002
 Component Sizing Information, Chiller:Electric:EIR, 90.1-2004 WATERCOOLED  ROTARY SCREW CHILLER 0, Design Size Reference Capacity [W], 1918083.71593
 Component Sizing Information, Chiller:Electric:EIR, 90.1-2004 WATERCOOLED  ROTARY SCREW CHILLER 0, Design Size Reference Condenser Fluid Flow Rate [m3/s], 9.76245E-002
! <Chiller Standard Rating Information>, Component Type, Component Name, IPLV in SI Units {W/W}, IPLV in IP Units {Btu/W-h}
 Chiller Standard Rating Information, Chiller:Electric:EIR, 90.1-2004 WATERCOOLED  ROTARY SCREW CHILLER 0, 7.88, 26.88
 Component Sizing Information, PlantLoop, LARGEHOTEL KITCHEN - 90.1-2004 SERVICE WATER BOOSTER LOOP, Maximum Loop Flow Rate [m3/s], 2.62959E-004
 Component Sizing Information, PlantLoop, LARGEHOTEL KITCHEN - 90.1-2004 SERVICE WATER BOOSTER LOOP, Plant Loop Volume [m3], 3.15550E-002
 Component Sizing Information, Pump:VariableSpeed, BOOSTER WATER LOOP PUMP, Design Flow Rate [m3/s], 2.62959E-004
 Component Sizing Information, HeatExchanger:FluidToFluid, HX FOR BOOSTER WATER HEATING, Loop Supply Side Design Fluid Flow Rate [m3/s], 2.62959E-004
 Component Sizing Information, HeatExchanger:FluidToFluid, HX FOR BOOSTER WATER HEATING, Loop Demand Side Design Fluid Flow Rate [m3/s], 2.62959E-004
 Component Sizing Information, HeatExchanger:FluidToFluid, HX FOR BOOSTER WATER HEATING, Heat Exchanger U-Factor Times Area Value [W/C], 320.44911
 Component Sizing Information, HeatExchanger:FluidToFluid, HX FOR BOOSTER WATER HEATING, Loop-to-loop Temperature Difference Used to Size Heat Exchanger U-Factor Times Area Value [C], 17.22222
 Component Sizing Information, WaterHeater:Mixed, 6.0GAL ELECTRICITY BOOSTER WATER HEATER - 50KBTU/HR, Use Side Design Flow Rate [m3/s], 2.62959E-004
 Component Sizing Information, PlantComponent:TemperatureSource, MAINS WATER MAKEUP FOR SWH BOOSTER, Design Size Design Fluid Flow Rate [m3/s], 1.49010E-003
 Component Sizing Information, PlantLoop, CONDENSER WATER LOOP, Maximum Loop Flow Rate [m3/s], 9.76245E-002
 Component Sizing Information, PlantLoop, CONDENSER WATER LOOP, Plant Loop Volume [m3], 11.71494
 Component Sizing Information, Pump:ConstantSpeed, CONDENSER WATER LOOP CONSTANT PUMP, Design Flow Rate [m3/s], 9.76245E-002
 Component Sizing Information, Pump:ConstantSpeed, CONDENSER WATER LOOP CONSTANT PUMP, Design Power Consumption [W], 20659.20779
 Component Sizing Information, CoolingTower:TwoSpeed, PROPELLER OR AXIAL TWOSPEED FAN OPEN COOLING TOWER, Design Water Flow Rate [m3/s], 9.76245E-002
 Component Sizing Information, CoolingTower:TwoSpeed, PROPELLER OR AXIAL TWOSPEED FAN OPEN COOLING TOWER, Fan Power at High Fan Speed [W], 23801.04252
 Component Sizing Information, CoolingTower:TwoSpeed, PROPELLER OR AXIAL TWOSPEED FAN OPEN COOLING TOWER, Air Flow Rate at High Fan Speed [m3/s], 64.25542
 Component Sizing Information, CoolingTower:TwoSpeed, PROPELLER OR AXIAL TWOSPEED FAN OPEN COOLING TOWER, U-Factor Times Area Value at High Fan Speed [W/C], 134317.69375
 Component Sizing Information, CoolingTower:TwoSpeed, PROPELLER OR AXIAL TWOSPEED FAN OPEN COOLING TOWER, Low Fan Speed Air Flow Rate [m3/s], 32.12771
 Component Sizing Information, CoolingTower:TwoSpeed, PROPELLER OR AXIAL TWOSPEED FAN OPEN COOLING TOWER, Fan Power at Low Fan Speed [W], 3808.16680
 Component Sizing Information, CoolingTower:TwoSpeed, PROPELLER OR AXIAL TWOSPEED FAN OPEN COOLING TOWER, U-Factor Times Area Value at Low Fan Speed [W/K], 80590.61625
 Component Sizing Information, PlantLoop, HOT WATER LOOP, Maximum Loop Flow Rate [m3/s], 7.17086E-002
 Component Sizing Information, PlantLoop, HOT WATER LOOP, Plant Loop Volume [m3], 8.60504
 Component Sizing Information, Pump:VariableSpeed, HOT WATER LOOP PUMP, Design Flow Rate [m3/s], 7.17086E-002
 Component Sizing Information, Pump:VariableSpeed, HOT WATER LOOP PUMP, Design Power Consumption [W], 18319.81923
 Component Sizing Information, Boiler:HotWater, BOILER, Design Size Nominal Capacity [W], 3278432.37813
 Component Sizing Information, Boiler:HotWater, BOILER, Design Size Design Water Flow Rate [m3/s], 7.17086E-002
 Component Sizing Information, PlantLoop, LARGEHOTEL KITCHEN - 90.1-2004 SERVICE WATER LOOP, Maximum Loop Flow Rate [m3/s], 1.92836E-003
 Component Sizing Information, PlantLoop, LARGEHOTEL KITCHEN - 90.1-2004 SERVICE WATER LOOP, Plant Loop Volume [m3], 0.23140
 Component Sizing Information, Pump:VariableSpeed, LARGEHOTEL KITCHEN - 90.1-2004 SERVICE WATER LOOP WATER MAINS PRESSURE DRIVEN, Design Flow Rate [m3/s], 1.92836E-003
 Component Sizing Information, Pump:VariableSpeed, LARGEHOTEL KITCHEN - 90.1-2004 SERVICE WATER LOOP WATER MAINS PRESSURE DRIVEN, Design Power Consumption [W], 2.47226E-006
 Component Sizing Information, WaterHeater:Mixed, 263GAL NATURALGAS WATER HEATER - 263KBTU/HR, Use Side Design Flow Rate [m3/s], 1.92836E-003
 Component Sizing Information, PlantLoop, LARGEHOTEL LAUNDRY - 90.1-2004 SERVICE WATER LOOP, Maximum Loop Flow Rate [m3/s], 5.17976E-004
 Component Sizing Information, PlantLoop, LARGEHOTEL LAUNDRY - 90.1-2004 SERVICE WATER LOOP, Plant Loop Volume [m3], 6.21571E-002
 Component Sizing Information, Pump:VariableSpeed, LARGEHOTEL LAUNDRY - 90.1-2004 SERVICE WATER LOOP WATER MAINS PRESSURE DRIVEN, Design Flow Rate [m3/s], 5.17976E-004
 Component Sizing Information, Pump:VariableSpeed, LARGEHOTEL LAUNDRY - 90.1-2004 SERVICE WATER LOOP WATER MAINS PRESSURE DRIVEN, Design Power Consumption [W], 6.64071E-007
 Component Sizing Information, WaterHeater:Mixed, 517GAL ELECTRICITY WATER HEATER - 517KBTU/HR, Use Side Design Flow Rate [m3/s], 5.17976E-004
 Component Sizing Information, PlantLoop, LARGEHOTEL SHARED SERVICE WATER LOOP, Maximum Loop Flow Rate [m3/s], 4.91232E-004
 Component Sizing Information, PlantLoop, LARGEHOTEL SHARED SERVICE WATER LOOP, Plant Loop Volume [m3], 5.89478E-002
 Component Sizing Information, Pump:ConstantSpeed, LARGEHOTEL SHARED SERVICE WATER LOOP CIRCULATOR PUMP, Design Flow Rate [m3/s], 4.91232E-004
 Component Sizing Information, Pump:ConstantSpeed, LARGEHOTEL SHARED SERVICE WATER LOOP CIRCULATOR PUMP, Design Power Consumption [W], 62.74892
 Component Sizing Information, WaterHeater:Mixed, 392GAL ELECTRICITY WATER HEATER - 392KBTU/HR, Use Side Design Flow Rate [m3/s], 4.91232E-004
! <Environment>,Environment Name,Environment Type, Start Date, End Date, Start DayOfWeek, Duration {#days}, Source:Start DayOfWeek,  Use Daylight Saving, Use Holidays, Apply Weekend Holiday Rule,  Use Rain Values, Use Snow Values
! <Environment:Special Days>, Special Day Name, Special Day Type, Source, Start Date, Duration {#days}
! <Environment:Daylight Saving>, Daylight Saving Indicator, Source, Start Date, End Date
! <Environment:WarmupDays>, NumberofWarmupDays
Environment,BUFFALO NIAGARA INTL AP ANN CLG .4% CONDNS DB=>MWB,SizingPeriod:DesignDay,07/21,07/21,SummerDesignDay,1,N/A,N/A,N/A,N/A,N/A,N/A
Environment:Daylight Saving,No,SizingPeriod:DesignDay
! <Environment:Design Day Data>, Max Dry-Bulb Temp {C}, Temp Range {dC}, Temp Range Ind Type, Hum Ind Value at Max Temp, Hum Ind Type,Pressure {Pa}, Wind Direction {deg CW from N}, Wind Speed {m/s}, Clearness, Rain, Snow
! <Environment:Design Day Misc>,DayOfYear,ASHRAE A Coeff,ASHRAE B Coeff,ASHRAE C Coeff,Solar Constant-Annual Variation,Eq of Time {minutes}, Solar Declination Angle {deg}, Solar Model
Environment:Design Day Data,30.30,9.30,DefaultMultipliers,98769,240,5.7,0.00,No,No
Environment:Design Day Misc,202,1084.4,0.2082,0.1365,1.0,-6.23,20.6,ASHRAETau
Environment:WarmupDays,  6
! <Tabular Report>,Style,Unit Conversion
Tabular Report,HTML,None
! <Warmup Convergence Information>,Zone Name,Environment Type/Name,Average Warmup Temperature Difference {deltaC},Std Dev Warmup Temperature Difference {deltaC},Max Temperature Pass/Fail Convergence,Min Temperature Pass/Fail Convergence,Average Warmup Load Difference {W},Std Dev Warmup Load Difference {W},Heating Load Pass/Fail Convergence,Cooling Load Pass/Fail Convergence
 Warmup Convergence Information,BUILDING STORY 1 THERMALZONE,SizingPeriod: BUFFALO NIAGARA INTL AP ANN CLG .4% CONDNS DB=>MWB,2.7614711384E-004,2.9791432632E-004,Pass,Pass,5.6662791865E-002,6.9470886000E-002,Pass,Pass
 Warmup Convergence Information,BUILDING STORY 10 THERMALZONE,SizingPeriod: BUFFALO NIAGARA INTL AP ANN CLG .4% CONDNS DB=>MWB,5.9635132913E-004,6.2060175680E-004,Pass,Pass,8.7806778028E-002,5.2992536592E-002,Pass,Pass
 Warmup Convergence Information,BUILDING STORY 2 THERMALZONE,SizingPeriod: BUFFALO NIAGARA INTL AP ANN CLG .4% CONDNS DB=>MWB,1.7984947027E-004,2.3571006917E-004,Pass,Pass,3.5402264351E-002,3.1729272447E-002,Pass,Pass
 Warmup Convergence Information,BUILDING STORY 3 THERMALZONE,SizingPeriod: BUFFALO NIAGARA INTL AP ANN CLG .4% CONDNS DB=>MWB,1.3952734473E-004,1.5702483980E-004,Pass,Pass,7.1187561515E-002,7.6246811214E-002,Pass,Pass
 Warmup Convergence Information,BUILDING STORY 4 THERMALZONE,SizingPeriod: BUFFALO NIAGARA INTL AP ANN CLG .4% CONDNS DB=>MWB,1.4353249326E-004,1.6377243390E-004,Pass,Pass,7.1762548181E-002,7.6268044936E-002,Pass,Pass
 Warmup Convergence Information,BUILDING STORY 5 THERMALZONE,SizingPeriod: BUFFALO NIAGARA INTL AP ANN CLG .4% CONDNS DB=>MWB,1.9113496704E-004,2.5722606261E-004,Pass,Pass,3.1709820349E-002,3.2970861631E-002,Pass,Pass
 Warmup Convergence Information,BUILDING STORY 6 THERMALZONE,SizingPeriod: BUFFALO NIAGARA INTL AP ANN CLG .4% CONDNS DB=>MWB,1.9330286471E-004,2.6244415862E-004,Pass,Pass,3.2435931791E-002,3.3630042271E-002,Pass,Pass
 Warmup Convergence Information,BUILDING STORY 7 THERMALZONE,SizingPeriod: BUFFALO NIAGARA INTL AP ANN CLG .4% CONDNS DB=>MWB,6.1255934025E-004,7.6646092299E-004,Pass,Pass,1.2373895313E-002,1.2745613945E-002,Pass,Pass
 Warmup Convergence Information,BUILDING STORY 8 THERMALZONE,SizingPeriod: BUFFALO NIAGARA INTL AP ANN CLG .4% CONDNS DB=>MWB,0.1332684676,0.1518773160,Pass,Pass,2.8971980069E-002,2.2569801673E-002,Pass,Pass
 Warmup Convergence Information,BUILDING STORY 9 THERMALZONE,SizingPeriod: BUFFALO NIAGARA INTL AP ANN CLG .4% CONDNS DB=>MWB,4.1142367451E-004,4.6585405827E-004,Pass,Pass,8.1473776394E-003,7.6593195157E-003,Pass,Pass
Environment,BUFFALO NIAGARA INTL AP ANN CLG .4% CONDNS WB=>MDB,SizingPeriod:DesignDay,07/21,07/21,SummerDesignDay,1,N/A,N/A,N/A,N/A,N/A,N/A
Environment:Daylight Saving,No,SizingPeriod:DesignDay
Environment:Design Day Data,27.80,9.30,DefaultMultipliers,98769,240,5.7,0.00,No,No
Environment:Design Day Misc,202,1084.4,0.2082,0.1365,1.0,-6.23,20.6,ASHRAETau
Environment:WarmupDays,  6
 Warmup Convergence Information,BUILDING STORY 1 THERMALZONE,SizingPeriod: BUFFALO NIAGARA INTL AP ANN CLG .4% CONDNS WB=>MDB,2.9065065409E-004,3.0900807130E-004,Pass,Pass,5.8218943630E-002,7.1075226730E-002,Pass,Pass
 Warmup Convergence Information,BUILDING STORY 10 THERMALZONE,SizingPeriod: BUFFALO NIAGARA INTL AP ANN CLG .4% CONDNS WB=>MDB,1.0455404527E-003,9.0894073539E-004,Pass,Pass,0.1083689687,6.3008382314E-002,Pass,Pass
 Warmup Convergence Information,BUILDING STORY 2 THERMALZONE,SizingPeriod: BUFFALO NIAGARA INTL AP ANN CLG .4% CONDNS WB=>MDB,2.3258616774E-004,2.5060484984E-004,Pass,Pass,3.6495683672E-002,3.2564072065E-002,Pass,Pass
 Warmup Convergence Information,BUILDING STORY 3 THERMALZONE,SizingPeriod: BUFFALO NIAGARA INTL AP ANN CLG .4% CONDNS WB=>MDB,1.9405840983E-004,2.4873084564E-004,Pass,Pass,7.8211756179E-002,8.3127405389E-002,Pass,Pass
 Warmup Convergence Information,BUILDING STORY 4 THERMALZONE,SizingPeriod: BUFFALO NIAGARA INTL AP ANN CLG .4% CONDNS WB=>MDB,2.0274987495E-004,2.5325443555E-004,Pass,Pass,7.9347720498E-002,8.3644298518E-002,Pass,Pass
 Warmup Convergence Information,BUILDING STORY 5 THERMALZONE,SizingPeriod: BUFFALO NIAGARA INTL AP ANN CLG .4% CONDNS WB=>MDB,2.7401426498E-004,2.8414368819E-004,Pass,Pass,3.2838715081E-002,3.4139569116E-002,Pass,Pass
 Warmup Convergence Information,BUILDING STORY 6 THERMALZONE,SizingPeriod: BUFFALO NIAGARA INTL AP ANN CLG .4% CONDNS WB=>MDB,2.8181350671E-004,2.9191751947E-004,Pass,Pass,3.3676377622E-002,3.4902178967E-002,Pass,Pass
 Warmup Convergence Information,BUILDING STORY 7 THERMALZONE,SizingPeriod: BUFFALO NIAGARA INTL AP ANN CLG .4% CONDNS WB=>MDB,7.6082501677E-003,1.3798253967E-002,Pass,Pass,1.2183565324E-002,1.2889287457E-002,Pass,Pass
 Warmup Convergence Information,BUILDING STORY 8 THERMALZONE,SizingPeriod: BUFFALO NIAGARA INTL AP ANN CLG .4% CONDNS WB=>MDB,0.1773107873,0.1684430156,Pass,Pass,2.6511215531E-002,1.5468438733E-002,Pass,Pass
 Warmup Convergence Information,BUILDING STORY 9 THERMALZONE,SizingPeriod: BUFFALO NIAGARA INTL AP ANN CLG .4% CONDNS WB=>MDB,7.7383717221E-004,1.0713813785E-003,Pass,Pass,8.2206911520E-003,7.7253354961E-003,Pass,Pass
Environment,BUFFALO NIAGARA INTL AP ANN HTG 99.6% CONDNS DB,SizingPeriod:DesignDay,01/21,01/21,WinterDesignDay,1,N/A,N/A,N/A,N/A,N/A,N/A
Environment:Daylight Saving,No,SizingPeriod:DesignDay
Environment:Design Day Data,-16.30,0.00,DefaultMultipliers,98769,270,5.1,0.00,No,No
Environment:Design Day Misc, 21,1229.0,0.1415,5.7310E-002,1.0,-11.15,-20.1,ASHRAEClearSky
Environment:WarmupDays,  8
 Warmup Convergence Information,BUILDING STORY 1 THERMALZONE,SizingPeriod: BUFFALO NIAGARA INTL AP ANN HTG 99.6% CONDNS DB,3.2595851944E-011,1.1232747957E-011,Pass,Pass,9.8632149914E-009,3.4133153428E-009,Pass,Pass
 Warmup Convergence Information,BUILDING STORY 10 THERMALZONE,SizingPeriod: BUFFALO NIAGARA INTL AP ANN HTG 99.6% CONDNS DB,7.9400190126E-012,3.2124298867E-012,Pass,Pass,2.6401317136E-010,1.0736691858E-010,Pass,Pass
 Warmup Convergence Information,BUILDING STORY 2 THERMALZONE,SizingPeriod: BUFFALO NIAGARA INTL AP ANN HTG 99.6% CONDNS DB,9.3915986099E-012,3.3158641441E-012,Pass,Pass,5.1254096146E-009,1.8202016915E-009,Pass,Pass
 Warmup Convergence Information,BUILDING STORY 3 THERMALZONE,SizingPeriod: BUFFALO NIAGARA INTL AP ANN HTG 99.6% CONDNS DB,8.3509095355E-003,1.3487595455E-003,Pass,Pass,3.6322432488E-004,4.3198097845E-004,Pass,Pass
 Warmup Convergence Information,BUILDING STORY 4 THERMALZONE,SizingPeriod: BUFFALO NIAGARA INTL AP ANN HTG 99.6% CONDNS DB,8.9311949030E-003,4.6930353937E-004,Pass,Pass,2.7859554016E-004,1.6181655150E-005,Pass,Pass
 Warmup Convergence Information,BUILDING STORY 5 THERMALZONE,SizingPeriod: BUFFALO NIAGARA INTL AP ANN HTG 99.6% CONDNS DB,3.2626777428E-008,7.9843453235E-009,Pass,Pass,1.0019019978E-005,2.4780865822E-006,Pass,Pass
 Warmup Convergence Information,BUILDING STORY 6 THERMALZONE,SizingPeriod: BUFFALO NIAGARA INTL AP ANN HTG 99.6% CONDNS DB,3.7610910386E-008,9.2108273013E-009,Pass,Pass,9.6700299350E-006,2.3930497207E-006,Pass,Pass
 Warmup Convergence Information,BUILDING STORY 7 THERMALZONE,SizingPeriod: BUFFALO NIAGARA INTL AP ANN HTG 99.6% CONDNS DB,3.5513324286E-004,6.3169904034E-005,Pass,Pass,1.3423434707E-004,2.3996983348E-005,Pass,Pass
 Warmup Convergence Information,BUILDING STORY 8 THERMALZONE,SizingPeriod: BUFFALO NIAGARA INTL AP ANN HTG 99.6% CONDNS DB,4.8906798368E-005,9.6146086906E-006,Pass,Pass,2.3750306801E-006,4.7068360562E-007,Pass,Pass
 Warmup Convergence Information,BUILDING STORY 9 THERMALZONE,SizingPeriod: BUFFALO NIAGARA INTL AP ANN HTG 99.6% CONDNS DB,4.4634448138E-008,1.8293551430E-008,Pass,Pass,1.1700757365E-008,4.8438377956E-009,Pass,Pass
! <Program Control Information:Threads/Parallel Sims>, Threading Supported,Maximum Number of Threads, Env Set Threads (OMP_NUM_THREADS), EP Env Set Threads (EP_OMP_NUM_THREADS), IDF Set Threads, Number of Threads Used (Interior Radiant Exchange), Number Nominal Surfaces, Number Parallel Sims
Program Control:Threads/Parallel Sims, No,1, N/A, N/A, N/A, N/A, N/A, N/A
End of Data
