{
   "completed_at" : "20191231T200911Z",
   "completed_status" : "Success",
   "current_step" : 11,
   "description" : "Mall 1",
   "eplusout_err" : "Program Version,EnergyPlus, Version 9.1.0-08d2e308bb, YMD=2019.12.31 13:04,\n   ** Warning ** Timestep: Requested number (1) is less than the suggested minimum of 4.\n   **   ~~~   ** Please see entry for Timestep in Input/Output Reference for discussion of considerations.\n   ************* Beginning Zone Sizing Calculations\n   ** Warning ** ProcessScheduleInput: Schedule:Day:Interval=\"33 SPACE(S) OCC SCH DEFAULT\", Blank Schedule Type Limits Name input -- will not be validated.\n   ** Warning ** ProcessScheduleInput: Schedule:Day:Interval=\"33 SPACE(S) OCC SCH FRIDAY\", Blank Schedule Type Limits Name input -- will not be validated.\n   ** Warning ** ProcessScheduleInput: Schedule:Day:Interval=\"33 SPACE(S) OCC SCH SATURDAY\", Blank Schedule Type Limits Name input -- will not be validated.\n   ** Warning ** ProcessScheduleInput: Schedule:Day:Interval=\"33 SPACE(S) OCC SCH SUMMER DESIGN DAY\", Blank Schedule Type Limits Name input -- will not be validated.\n   ** Warning ** ProcessScheduleInput: Schedule:Day:Interval=\"33 SPACE(S) OCC SCH SUNDAY\", Blank Schedule Type Limits Name input -- will not be validated.\n   ** Warning ** ProcessScheduleInput: Schedule:Day:Interval=\"33 SPACE(S) OCC SCH WINTER DESIGN DAY\", Blank Schedule Type Limits Name input -- will not be validated.\n   ** Warning ** ProcessScheduleInput: Schedule:Day:Interval=\"ECONOMIZER MAX OA FRACTION 70 PCT DEFAULT\", Blank Schedule Type Limits Name input -- will not be validated.\n   ** Warning ** ProcessScheduleInput: Schedule:Day:Interval=\"SCHEDULE DAY 1\", Blank Schedule Type Limits Name input -- will not be validated.\n   ** Warning ** ProcessScheduleInput: Schedule:Day:Interval=\"SCHEDULE DAY 2\", Blank Schedule Type Limits Name input -- will not be validated.\n   ** Warning ** ProcessScheduleInput: Schedule:Day:Interval=\"SCHEDULE DAY 3\", Blank Schedule Type Limits Name input -- will not be validated.\n   ** Warning ** ProcessScheduleInput: Schedule:Day:Interval=\"SCHEDULE DAY 4\", Blank Schedule Type Limits Name input -- will not be validated.\n   ** Warning ** ProcessScheduleInput: Schedule:Day:Interval=\"SCHEDULE DAY 5\", Blank Schedule Type Limits Name input -- will not be validated.\n   ** Warning ** ProcessScheduleInput: Schedule:Day:Interval=\"SCHEDULE DAY 6\", Blank Schedule Type Limits Name input -- will not be validated.\n   ** Warning ** ProcessScheduleInput: Schedule:Year=\"ECONOMIZER MAX OA FRACTION 70 PCT\", Blank Schedule Type Limits Name input -- will not be validated.\n   ** Warning ** ProcessScheduleInput: Schedule:Year=\"ELEVATOR SCHEDULE\", Blank Schedule Type Limits Name input -- will not be validated.\n   ** Warning ** ProcessScheduleInput: Schedule:Constant=\"ALWAYS OFF DISCRETE\", Blank Schedule Type Limits Name input -- will not be validated.\n   ** Warning ** ProcessScheduleInput: Schedule:Constant=\"ALWAYS ON CONTINUOUS\", Blank Schedule Type Limits Name input -- will not be validated.\n   ** Warning ** CheckUsedConstructions: There are 9 nominally unused constructions in input.\n   **   ~~~   ** For explicit details on each unused construction, use Output:Diagnostics,DisplayExtraWarnings;\n   ************* Beginning System Sizing Calculations\n   ** Warning ** Since Zone Minimum Air Flow Input Method = CONSTANT, input for Fixed Minimum Air Flow Rate will be ignored.\n   **   ~~~   ** Occurs in AirTerminal:SingleDuct:VAV:Reheat = BUILDING STORY 1 THERMALZONE VAV TERMINAL\n   ** Warning ** Since Damper Heating Action = NORMAL, input for Maximum Flow Fraction During Reheat will be ignored.\n   **   ~~~   ** Occurs in AirTerminal:SingleDuct:VAV:Reheat = BUILDING STORY 1 THERMALZONE VAV TERMINAL\n   ** Warning ** Since Zone Minimum Air Flow Input Method = CONSTANT, input for Fixed Minimum Air Flow Rate will be ignored.\n   **   ~~~   ** Occurs in AirTerminal:SingleDuct:VAV:Reheat = BUILDING STORY 2 THERMALZONE VAV TERMINAL\n   ** Warning ** Since Damper Heating Action = NORMAL, input for Maximum Flow Fraction During Reheat will be ignored.\n   **   ~~~   ** Occurs in AirTerminal:SingleDuct:VAV:Reheat = BUILDING STORY 2 THERMALZONE VAV TERMINAL\n   ** Warning ** Since Zone Minimum Air Flow Input Method = CONSTANT, input for Fixed Minimum Air Flow Rate will be ignored.\n   **   ~~~   ** Occurs in AirTerminal:SingleDuct:VAV:Reheat = BUILDING STORY 3 THERMALZONE VAV TERMINAL\n   ** Warning ** Since Damper Heating Action = NORMAL, input for Maximum Flow Fraction During Reheat will be ignored.\n   **   ~~~   ** Occurs in AirTerminal:SingleDuct:VAV:Reheat = BUILDING STORY 3 THERMALZONE VAV TERMINAL\n   ************* Beginning Plant Sizing Calculations\n   ** Warning ** In calculating the design coil UA for Coil:Cooling:Water 1 ZONE VAV CLG COIL\n   **   ~~~   ** the coil bypass factor is unrealistically large;\n   **   ~~~   ** The initial design conditions are: Tair,in = 25.9686\n   **   ~~~   **                                    Wair,in = 1.295130E-002\n   **   ~~~   **                                    Twater,in = 6.6667\n   **   ~~~   **                                    Tair,out = 10.9044\n   **   ~~~   **                                    Wair,out = 8.500000E-003\n   ** Warning ** In calculating the design coil UA for Coil:Cooling:Water 1 ZONE VAV 1 CLG COIL\n   **   ~~~   ** the coil bypass factor is unrealistically large;\n   **   ~~~   ** The initial design conditions are: Tair,in = 25.2488\n   **   ~~~   **                                    Wair,in = 1.090007E-002\n   **   ~~~   **                                    Twater,in = 6.6667\n   **   ~~~   **                                    Tair,out = 10.8974\n   **   ~~~   **                                    Wair,out = 8.500000E-003\n   ** Warning ** In calculating the design coil UA for Coil:Cooling:Water 1 ZONE VAV 2 CLG COIL\n   **   ~~~   ** the coil bypass factor is unrealistically large;\n   **   ~~~   ** The initial design conditions are: Tair,in = 25.0269\n   **   ~~~   **                                    Wair,in = 1.049635E-002\n   **   ~~~   **                                    Twater,in = 6.6667\n   **   ~~~   **                                    Tair,out = 10.8961\n   **   ~~~   **                                    Wair,out = 8.500000E-003\n   ** Warning ** GetElectricEIRChillerInput: Chiller:Electric:EIR=\"90.1-2004 WATERCOOLED  ROTARY SCREW CHILLER 0 1018TONS 0.6KW/TON\"\n   **   ~~~   ** Energy input ratio as a function of temperature curve output is not equal to 1.0 (+ or - 10%) at reference conditions.\n   **   ~~~   ** Curve output at reference conditions = 1.205\n   ** Warning ** Water heater = 42X 50GAL ELECTRICITY WATER HEATER - 20KBTU/HR 1.0 THERM EFF:  Recovery Efficiency and Energy Factor could not be calculated during the test for standard ratings\n   **   ~~~   ** Setpoint was never recovered and/or heater never turned on\n   ** Warning ** Water heater = 42X 50GAL ELECTRICITY WATER HEATER - 20KBTU/HR 1 1.0 THERM EFF:  Recovery Efficiency and Energy Factor could not be calculated during the test for standard ratings\n   **   ~~~   ** Setpoint was never recovered and/or heater never turned on\n   ** Warning ** Water heater = 83X 50GAL ELECTRICITY WATER HEATER - 20KBTU/HR 1.0 THERM EFF:  Recovery Efficiency and Energy Factor could not be calculated during the test for standard ratings\n   **   ~~~   ** Setpoint was never recovered and/or heater never turned on\n   ** Warning ** Missing temperature setpoint for LeavingSetpointModulated mode Boiler named BOILER 11550KBTU/HR 0.75 THERMAL EFF\n   **   ~~~   **   A temperature setpoint is needed at the outlet node of a boiler in variable flow mode\n   **   ~~~   **   use a Setpoint Manager to establish a setpoint at the boiler outlet node \n   **   ~~~   **   or use an EMS actuator to establish a setpoint at the boiler outlet node \n   **   ~~~   **   The overall loop setpoint will be assumed for Boiler. The simulation continues ... \n   ** Warning ** Output:Meter: invalid Key Name=\"HEATING:ADDITIONALFUEL\" - not found.\n   ** Warning ** Output:Meter: invalid Key Name=\"HEATING:DISTRICTCOOLING\" - not found.\n   ** Warning ** Output:Meter: invalid Key Name=\"HEATING:DISTRICTHEATING\" - not found.\n   ** Warning ** Output:Meter: invalid Key Name=\"HEATING:WATER\" - not found.\n   ** Warning ** Output:Meter: invalid Key Name=\"COOLING:GAS\" - not found.\n   ** Warning ** Output:Meter: invalid Key Name=\"COOLING:ADDITIONALFUEL\" - not found.\n   ** Warning ** Output:Meter: invalid Key Name=\"COOLING:DISTRICTCOOLING\" - not found.\n   ** Warning ** Output:Meter: invalid Key Name=\"COOLING:DISTRICTHEATING\" - not found.\n   ** Warning ** Output:Meter: invalid Key Name=\"COOLING:WATER\" - not found.\n   ** Warning ** Output:Meter: invalid Key Name=\"INTERIORLIGHTS:GAS\" - not found.\n   ** Warning ** Output:Meter: invalid Key Name=\"INTERIORLIGHTS:ADDITIONALFUEL\" - not found.\n   ** Warning ** Output:Meter: invalid Key Name=\"INTERIORLIGHTS:DISTRICTCOOLING\" - not found.\n   ** Warning ** Output:Meter: invalid Key Name=\"INTERIORLIGHTS:DISTRICTHEATING\" - not found.\n   ** Warning ** Output:Meter: invalid Key Name=\"INTERIORLIGHTS:WATER\" - not found.\n   ** Warning ** Output:Meter: invalid Key Name=\"EXTERIORLIGHTS:GAS\" - not found.\n   ** Warning ** Output:Meter: invalid Key Name=\"EXTERIORLIGHTS:ADDITIONALFUEL\" - not found.\n   ** Warning ** Output:Meter: invalid Key Name=\"EXTERIORLIGHTS:DISTRICTCOOLING\" - not found.\n   ** Warning ** Output:Meter: invalid Key Name=\"EXTERIORLIGHTS:DISTRICTHEATING\" - not found.\n   ** Warning ** Output:Meter: invalid Key Name=\"EXTERIORLIGHTS:WATER\" - not found.\n   ** Warning ** Output:Meter: invalid Key Name=\"INTERIOREQUIPMENT:GAS\" - not found.\n   ** Warning ** Output:Meter: invalid Key Name=\"INTERIOREQUIPMENT:ADDITIONALFUEL\" - not found.\n   ** Warning ** Output:Meter: invalid Key Name=\"INTERIOREQUIPMENT:DISTRICTCOOLING\" - not found.\n   ** Warning ** Output:Meter: invalid Key Name=\"INTERIOREQUIPMENT:DISTRICTHEATING\" - not found.\n   ** Warning ** Output:Meter: invalid Key Name=\"INTERIOREQUIPMENT:WATER\" - not found.\n   ** Warning ** Output:Meter: invalid Key Name=\"EXTERIOREQUIPMENT:ELECTRICITY\" - not found.\n   ** Warning ** Output:Meter: invalid Key Name=\"EXTERIOREQUIPMENT:GAS\" - not found.\n   ** Warning ** Output:Meter: invalid Key Name=\"EXTERIOREQUIPMENT:ADDITIONALFUEL\" - not found.\n   ** Warning ** Output:Meter: invalid Key Name=\"EXTERIOREQUIPMENT:DISTRICTCOOLING\" - not found.\n   ** Warning ** Output:Meter: invalid Key Name=\"EXTERIOREQUIPMENT:DISTRICTHEATING\" - not found.\n   ** Warning ** Output:Meter: invalid Key Name=\"EXTERIOREQUIPMENT:WATER\" - not found.\n   ** Warning ** Output:Meter: invalid Key Name=\"FANS:GAS\" - not found.\n   ** Warning ** Output:Meter: invalid Key Name=\"FANS:ADDITIONALFUEL\" - not found.\n   ** Warning ** Output:Meter: invalid Key Name=\"FANS:DISTRICTCOOLING\" - not found.\n   ** Warning ** Output:Meter: invalid Key Name=\"FANS:DISTRICTHEATING\" - not found.\n   ** Warning ** Output:Meter: invalid Key Name=\"FANS:WATER\" - not found.\n   ** Warning ** Output:Meter: invalid Key Name=\"PUMPS:GAS\" - not found.\n   ** Warning ** Output:Meter: invalid Key Name=\"PUMPS:ADDITIONALFUEL\" - not found.\n   ** Warning ** Output:Meter: invalid Key Name=\"PUMPS:DISTRICTCOOLING\" - not found.\n   ** Warning ** Output:Meter: invalid Key Name=\"PUMPS:DISTRICTHEATING\" - not found.\n   ** Warning ** Output:Meter: invalid Key Name=\"PUMPS:WATER\" - not found.\n   ** Warning ** Output:Meter: invalid Key Name=\"HEATREJECTION:GAS\" - not found.\n   ** Warning ** Output:Meter: invalid Key Name=\"HEATREJECTION:ADDITIONALFUEL\" - not found.\n   ** Warning ** Output:Meter: invalid Key Name=\"HEATREJECTION:DISTRICTCOOLING\" - not found.\n   ** Warning ** Output:Meter: invalid Key Name=\"HEATREJECTION:DISTRICTHEATING\" - not found.\n   ** Warning ** Output:Meter: invalid Key Name=\"HUMIDIFIER:ELECTRICITY\" - not found.\n   ** Warning ** Output:Meter: invalid Key Name=\"HUMIDIFIER:GAS\" - not found.\n   ** Warning ** Output:Meter: invalid Key Name=\"HUMIDIFIER:ADDITIONALFUEL\" - not found.\n   ** Warning ** Output:Meter: invalid Key Name=\"HUMIDIFIER:DISTRICTCOOLING\" - not found.\n   ** Warning ** Output:Meter: invalid Key Name=\"HUMIDIFIER:DISTRICTHEATING\" - not found.\n   ** Warning ** Output:Meter: invalid Key Name=\"HUMIDIFIER:WATER\" - not found.\n   ** Warning ** Output:Meter: invalid Key Name=\"HEATRECOVERY:ELECTRICITY\" - not found.\n   ** Warning ** Output:Meter: invalid Key Name=\"HEATRECOVERY:GAS\" - not found.\n   ** Warning ** Output:Meter: invalid Key Name=\"HEATRECOVERY:ADDITIONALFUEL\" - not found.\n   ** Warning ** Output:Meter: invalid Key Name=\"HEATRECOVERY:DISTRICTCOOLING\" - not found.\n   ** Warning ** Output:Meter: invalid Key Name=\"HEATRECOVERY:DISTRICTHEATING\" - not found.\n   ** Warning ** Output:Meter: invalid Key Name=\"HEATRECOVERY:WATER\" - not found.\n   ** Warning ** Output:Meter: invalid Key Name=\"WATERSYSTEMS:GAS\" - not found.\n   ** Warning ** Output:Meter: invalid Key Name=\"WATERSYSTEMS:ADDITIONALFUEL\" - not found.\n   ** Warning ** Output:Meter: invalid Key Name=\"WATERSYSTEMS:DISTRICTCOOLING\" - not found.\n   ** Warning ** Output:Meter: invalid Key Name=\"WATERSYSTEMS:DISTRICTHEATING\" - not found.\n   ** Warning ** Output:Meter: invalid Key Name=\"REFRIGERATION:ELECTRICITY\" - not found.\n   ** Warning ** Output:Meter: invalid Key Name=\"REFRIGERATION:GAS\" - not found.\n   ** Warning ** Output:Meter: invalid Key Name=\"REFRIGERATION:ADDITIONALFUEL\" - not found.\n   ** Warning ** Output:Meter: invalid Key Name=\"REFRIGERATION:DISTRICTCOOLING\" - not found.\n   ** Warning ** Output:Meter: invalid Key Name=\"REFRIGERATION:DISTRICTHEATING\" - not found.\n   ** Warning ** Output:Meter: invalid Key Name=\"REFRIGERATION:WATER\" - not found.\n   ** Warning ** Output:Meter: invalid Key Name=\"GENERATORS:ELECTRICITY\" - not found.\n   ** Warning ** Output:Meter: invalid Key Name=\"GENERATORS:GAS\" - not found.\n   ** Warning ** Output:Meter: invalid Key Name=\"GENERATORS:ADDITIONALFUEL\" - not found.\n   ** Warning ** Output:Meter: invalid Key Name=\"GENERATORS:DISTRICTCOOLING\" - not found.\n   ** Warning ** Output:Meter: invalid Key Name=\"GENERATORS:DISTRICTHEATING\" - not found.\n   ** Warning ** Output:Meter: invalid Key Name=\"GENERATORS:WATER\" - not found.\n   ** Warning ** Output:Meter: invalid Key Name=\"ADDITIONALFUEL:FACILITY\" - not found.\n   ** Warning ** Output:Meter: invalid Key Name=\"DISTRICTCOOLING:FACILITY\" - not found.\n   ** Warning ** Output:Meter: invalid Key Name=\"DISTRICTHEATING:FACILITY\" - not found.\n   ** Warning ** Output:Meter: invalid Key Name=\"DISTRICTCOOLING:FACILITY\" - not found.\n   ** Warning ** Output:Meter: invalid Key Name=\"DISTRICTHEATING:FACILITY\" - not found.\n   ** Warning ** Output:Meter:MeterFileOnly requested for \"Electricity:Facility\" (Hourly), already on \"Output:Meter\". Will report to both eplusout.eso and eplusout.mtr\n   ** Warning ** Output:Meter:MeterFileOnly: invalid Key Name=\"ELECTRICITYPRODUCED:FACILITY\" - not found.\n   ** Warning ** Output:Meter:MeterFileOnly requested for \"Gas:Facility\" (Hourly), already on \"Output:Meter\". Will report to both eplusout.eso and eplusout.mtr\n   ** Warning ** Output:Meter:MeterFileOnly: invalid Key Name=\"DISTRICTCOOLING:FACILITY\" - not found.\n   ** Warning ** Output:Meter:MeterFileOnly: invalid Key Name=\"DISTRICTHEATING:FACILITY\" - not found.\n   ** Warning ** Output:Meter:MeterFileOnly requested for \"Electricity:Facility\" (TimeStep), already on \"Output:Meter\". Will report to both eplusout.eso and eplusout.mtr\n   ************* Testing Individual Branch Integrity\n   ************* All Branches passed integrity testing\n   ************* Testing Individual Supply Air Path Integrity\n   ************* All Supply Air Paths passed integrity testing\n   ************* Testing Individual Return Air Path Integrity\n   ************* All Return Air Paths passed integrity testing\n   ************* No node connection errors were found.\n   ************* Beginning Simulation\n   ** Warning ** Processing Monthly Tabular Reports: Variable names not valid for this simulation\n   **   ~~~   ** ...use Output:Diagnostics,DisplayExtraWarnings; to show more details on individual variables.\n   ** Warning ** The resource referenced by LifeCycleCost:UsePriceEscalation= \"U.S. AVG  COMMERCIAL-ELECTRICITY\" has no energy cost. \n   **   ~~~   ** ... It is likely that the wrong resource is used. The resource should match the meter used in Utility:Tariff.\n   ** Warning ** The resource referenced by LifeCycleCost:UsePriceEscalation= \"U.S. AVG  COMMERCIAL-DISTILLATE OIL\" has no energy cost. \n   **   ~~~   ** ... It is likely that the wrong resource is used. The resource should match the meter used in Utility:Tariff.\n   ** Warning ** The resource referenced by LifeCycleCost:UsePriceEscalation= \"U.S. AVG  COMMERCIAL-RESIDUAL OIL\" has no energy cost. \n   **   ~~~   ** ... It is likely that the wrong resource is used. The resource should match the meter used in Utility:Tariff.\n   ** Warning ** The resource referenced by LifeCycleCost:UsePriceEscalation= \"U.S. AVG  COMMERCIAL-NATURAL GAS\" has no energy cost. \n   **   ~~~   ** ... It is likely that the wrong resource is used. The resource should match the meter used in Utility:Tariff.\n   ** Warning ** The resource referenced by LifeCycleCost:UsePriceEscalation= \"U.S. AVG  COMMERCIAL-COAL\" has no energy cost. \n   **   ~~~   ** ... It is likely that the wrong resource is used. The resource should match the meter used in Utility:Tariff.\n   ************* Simulation Error Summary *************\n   ** Warning ** The following Report Variables were requested but not generated -- check.rdd file\n   **   ~~~   ** Either the IDF did not contain these elements, the variable name is misspelled,\n   **   ~~~   ** or the requested variable is an advanced output which requires Output : Diagnostics, DisplayAdvancedReportVariables;\n   ************* Key=*, VarName=DISTRICT COOLING CHILLED WATER RATE, Frequency=Hourly\n   ************* Key=*, VarName=DISTRICT COOLING MASS FLOW RATE, Frequency=Hourly\n   ************* Key=*, VarName=DISTRICT COOLING INLET TEMPERATURE, Frequency=Hourly\n   ************* Key=*, VarName=DISTRICT COOLING OUTLET TEMPERATURE, Frequency=Hourly\n   ************* Key=*, VarName=DISTRICT HEATING HOT WATER RATE, Frequency=Hourly\n   ************* Key=*, VarName=DISTRICT HEATING MASS FLOW RATE, Frequency=Hourly\n   ************* Key=*, VarName=DISTRICT HEATING INLET TEMPERATURE, Frequency=Hourly\n   ************* Key=*, VarName=DISTRICT HEATING OUTLET TEMPERATURE, Frequency=Hourly\n   ************* There are 12 unused schedules in input.\n   ************* There are 13 unused week schedules in input.\n   ************* There are 43 unused day schedules in input.\n   ************* Use Output:Diagnostics,DisplayUnusedSchedules; to see them.\n   *************\n   ************* ===== Final Error Summary =====\n   ************* The following error categories occurred.  Consider correcting or noting.\n   ************* Nominally Unused Constructions\n   ************* ..The nominally unused constructions warning is provided to alert you to potential conditions that can cause\n   ************* ..extra time during simulation. Each construction is calculated by the algorithm indicated in the HeatBalanceAlgorithm\n   ************* ..object. You may remove the constructions indicated (when you use the DisplayExtraWarnings option).\n   *************\n   ************* EnergyPlus Warmup Error Summary. During Warmup: 0 Warning; 0 Severe Errors.\n   ************* EnergyPlus Sizing Error Summary. During Sizing: 24 Warning; 0 Severe Errors.\n   ************* EnergyPlus Completed Successfully-- 123 Warning; 0 Severe Errors; Elapsed Time=00hr 03min 41.00sec\n",
   "file_paths" : [
      "/Users/tkwasnik/github/urbanopt-example-geojson-reopt-project/run/baseline_scenario/12/generated_files",
      "/Users/tkwasnik/github/urbanopt-example-geojson-reopt-project/mappers/../weather/",
      "/Users/tkwasnik/github/urbanopt-example-geojson-reopt-project/.bundle/install/ruby/2.2.0/gems/openstudio-common-measures-0.1.0/lib/files",
      "/Users/tkwasnik/github/urbanopt-example-geojson-reopt-project/.bundle/install/ruby/2.2.0/gems/openstudio-extension-0.1.3/lib/files",
      "/Users/tkwasnik/github/urbanopt-example-geojson-reopt-project/weather",
      "/Users/tkwasnik/github/urbanopt-example-geojson-reopt-project/.bundle/install/ruby/2.2.0/bundler/gems/urbanopt-reopt-gem-9d3a2c58ed2e/lib/files",
      "/Users/tkwasnik/github/urbanopt-example-geojson-reopt-project/.bundle/install/ruby/2.2.0/gems/openstudio-model-articulation-0.1.0/lib/files",
      "./files",
      "./weather",
      "../../files",
      "../../weather",
      "./"
   ],
   "hash" : "339374E9",
   "measure_paths" : [
      "/Users/tkwasnik/github/urbanopt-example-geojson-reopt-project/.bundle/install/ruby/2.2.0/bundler/gems/urbanopt-geojson-gem-b4618102cfc8/lib/measures",
      "/Users/tkwasnik/github/urbanopt-example-geojson-reopt-project/.bundle/install/ruby/2.2.0/gems/openstudio-common-measures-0.1.0/lib/measures",
      "/Users/tkwasnik/github/urbanopt-example-geojson-reopt-project/.bundle/install/ruby/2.2.0/gems/openstudio-extension-0.1.3/lib/measures",
      "/Users/tkwasnik/github/urbanopt-example-geojson-reopt-project/.bundle/install/ruby/2.2.0/bundler/gems/urbanopt-scenario-gem-da28d381c70f/lib/measures",
      "/Users/tkwasnik/github/urbanopt-example-geojson-reopt-project/.bundle/install/ruby/2.2.0/bundler/gems/urbanopt-reopt-gem-9d3a2c58ed2e/lib/measures",
      "/Users/tkwasnik/github/urbanopt-example-geojson-reopt-project/.bundle/install/ruby/2.2.0/gems/openstudio-model-articulation-0.1.0/lib/measures"
   ],
   "name" : "Mall 1",
   "run_directory" : "/Users/tkwasnik/github/urbanopt-example-geojson-reopt-project/run/baseline_scenario/12",
   "seed_file" : null,
   "started_at" : "20191231T200344Z",
   "steps" : [
      {
         "arguments" : {
            "begin_date" : "2018-01-01",
            "end_date" : "2018-12-31",
            "timesteps_per_hour" : 1
         },
         "measure_dir_name" : "set_run_period",
         "result" : {
            "completed_at" : "20191231T200344Z",
            "measure_class_name" : "SetRunPeriod",
            "measure_display_name" : "SetRunPeriod",
            "measure_name" : "set_run_period",
            "measure_taxonomy" : "Envelope.Form",
            "measure_type" : "ModelMeasure",
            "measure_uid" : "7a84292a-3975-4ab3-9284-6edabcbe750b",
            "measure_version_id" : "62323562-963d-4e61-8dc1-33935da3c01e",
            "measure_version_modified" : "20191029T231304Z",
            "measure_xml_checksum" : "2AF3A68E",
            "started_at" : "20191231T200344Z",
            "stderr" : "",
            "stdout" : "",
            "step_errors" : [],
            "step_files" : [],
            "step_info" : [],
            "step_result" : "Success",
            "step_values" : [
               {
                  "name" : "timesteps_per_hour",
                  "value" : 1
               },
               {
                  "name" : "begin_date",
                  "value" : "2018-01-01"
               },
               {
                  "name" : "end_date",
                  "value" : "2018-12-31"
               }
            ],
            "step_warnings" : []
         }
      },
      {
         "arguments" : {
            "climate_zone" : "6A",
            "weather_file_name" : "USA_NY_Buffalo-Greater.Buffalo.Intl.AP.725280_TMY3.epw"
         },
         "measure_dir_name" : "ChangeBuildingLocation",
         "result" : {
            "completed_at" : "20191231T200346Z",
            "measure_class_name" : "ChangeBuildingLocation",
            "measure_display_name" : "ChangeBuildingLocation",
            "measure_name" : "change_building_location",
            "measure_taxonomy" : "Whole Building.Space Types",
            "measure_type" : "ModelMeasure",
            "measure_uid" : "d4db4971-f5ba-11e3-a3ac-0800200c9a66",
            "measure_version_id" : "9938c101-08b8-4eaa-9eb4-4f6e5c8921b0",
            "measure_version_modified" : "20191029T231254Z",
            "measure_xml_checksum" : "057E8D9D",
            "started_at" : "20191231T200344Z",
            "stderr" : "",
            "stdout" : "[openstudio.model.YearDescription] <1> 'UseWeatherFile' is not yet a supported option for YearDescription\n[openstudio.model.YearDescription] <1> 'UseWeatherFile' is not yet a supported option for YearDescription\n",
            "step_errors" : [],
            "step_files" : [],
            "step_final_condition" : "The final weather file is Buffalo Niagara Intl Ap and the model has 3 design day objects.",
            "step_info" : [
               "city is Buffalo Niagara Intl Ap. State is NY",
               "mean dry bulb is 8.966666666666667",
               "Adding object Buffalo Niagara Intl Ap Ann Clg .4% Condns WB=>MDB",
               "Adding object Buffalo Niagara Intl Ap Ann Clg .4% Condns DB=>MWB",
               "Adding object Buffalo Niagara Intl Ap Ann Htg 99.6% Condns DB",
               "Setting Climate Zone to 6A"
            ],
            "step_initial_condition" : "No weather file is set. The model has 0 design day objects",
            "step_result" : "Success",
            "step_values" : [
               {
                  "name" : "weather_file_name",
                  "value" : "USA_NY_Buffalo-Greater.Buffalo.Intl.AP.725280_TMY3.epw"
               },
               {
                  "name" : "climate_zone",
                  "value" : "6A"
               },
               {
                  "name" : "set_year",
                  "value" : 0
               },
               {
                  "name" : "use_upstream_args",
                  "value" : true
               }
            ],
            "step_warnings" : [ "weather_file.path is ." ]
         }
      },
      {
         "arguments" : {
            "bar_division_method" : "Multiple Space Types - Individual Stories Sliced",
            "bldg_type_a" : "RetailStripmall",
            "bldg_type_a_num_units" : 0,
            "bldg_type_b" : "SmallOffice",
            "bldg_type_b_fract_bldg_area" : 0,
            "bldg_type_b_num_units" : 0,
            "bldg_type_c" : "SmallOffice",
            "bldg_type_c_fract_bldg_area" : 0,
            "bldg_type_c_num_units" : 0,
            "bldg_type_d" : "SmallOffice",
            "bldg_type_d_fract_bldg_area" : 0,
            "bldg_type_d_num_units" : 0,
            "building_rotation" : 0,
            "floor_height" : 10,
            "ns_to_ew_ratio" : 0,
            "num_stories_above_grade" : 3,
            "num_stories_below_grade" : 0,
            "party_wall_fraction" : 0,
            "single_floor_area" : 124803,
            "story_multiplier" : "None",
            "template" : "90.1-2004",
            "wwr" : 0
         },
         "measure_dir_name" : "create_bar_from_building_type_ratios",
         "result" : {
            "completed_at" : "20191231T200404Z",
            "measure_class_name" : "CreateBarFromBuildingTypeRatios",
            "measure_display_name" : "Create Bar From Building Type Ratios",
            "measure_name" : "create_bar_from_building_type_ratios",
            "measure_taxonomy" : "Envelope.Form",
            "measure_type" : "ModelMeasure",
            "measure_uid" : "6e3a14f8-c3c7-4e03-bc51-bef8a52e1a05",
            "measure_version_id" : "c56c06d4-914c-4bb0-a924-d3e790ec69a7",
            "measure_version_modified" : "20191030T020543Z",
            "measure_xml_checksum" : "2AF3A68E",
            "started_at" : "20191231T200354Z",
            "stderr" : "",
            "stdout" : "",
            "step_errors" : [],
            "step_files" : [],
            "step_final_condition" : "The building finished with 33 spaces.",
            "step_info" : [
               "0.0 value for aspect ratio will be replaced with smart default for RetailStripmall of 4.0.",
               "0.0 value for window to wall ratio will be replaced with smart default for RetailStripmall of 0.11.",
               "Creating Space Types for RetailStripmall.",
               "Intersecting surfaces, this will create additional geometry.",
               "Created Bar envlope with floor area of 374,409 (ft^2)",
               "Target party wall fraction is 0.0. Realized fraction is 0.0"
            ],
            "step_initial_condition" : "The building started with 0 spaces.",
            "step_result" : "Success",
            "step_values" : [
               {
                  "name" : "bldg_type_a",
                  "value" : "RetailStripmall"
               },
               {
                  "name" : "bldg_type_a_num_units",
                  "value" : 0
               },
               {
                  "name" : "bldg_type_b",
                  "value" : "SmallOffice"
               },
               {
                  "name" : "bldg_type_b_fract_bldg_area",
                  "value" : 0
               },
               {
                  "name" : "bldg_type_b_num_units",
                  "value" : 0
               },
               {
                  "name" : "bldg_type_c",
                  "value" : "SmallOffice"
               },
               {
                  "name" : "bldg_type_c_fract_bldg_area",
                  "value" : 0
               },
               {
                  "name" : "bldg_type_c_num_units",
                  "value" : 0
               },
               {
                  "name" : "bldg_type_d",
                  "value" : "SmallOffice"
               },
               {
                  "name" : "bldg_type_d_fract_bldg_area",
                  "value" : 0
               },
               {
                  "name" : "bldg_type_d_num_units",
                  "value" : 0
               },
               {
                  "name" : "single_floor_area",
                  "value" : 124803
               },
               {
                  "name" : "total_bldg_floor_area",
                  "value" : 10000
               },
               {
                  "name" : "floor_height",
                  "value" : 10
               },
               {
                  "name" : "num_stories_above_grade",
                  "value" : 3
               },
               {
                  "name" : "num_stories_below_grade",
                  "value" : 0
               },
               {
                  "name" : "building_rotation",
                  "value" : 0
               },
               {
                  "name" : "template",
                  "value" : "90.1-2004"
               },
               {
                  "name" : "ns_to_ew_ratio",
                  "value" : 0
               },
               {
                  "name" : "wwr",
                  "value" : 0
               },
               {
                  "name" : "party_wall_fraction",
                  "value" : 0
               },
               {
                  "name" : "party_wall_stories_north",
                  "value" : 0
               },
               {
                  "name" : "party_wall_stories_south",
                  "value" : 0
               },
               {
                  "name" : "party_wall_stories_east",
                  "value" : 0
               },
               {
                  "name" : "party_wall_stories_west",
                  "value" : 0
               },
               {
                  "name" : "bottom_story_ground_exposed_floor",
                  "value" : true
               },
               {
                  "name" : "top_story_exterior_exposed_roof",
                  "value" : true
               },
               {
                  "name" : "story_multiplier",
                  "value" : "None"
               },
               {
                  "name" : "bar_division_method",
                  "value" : "Multiple Space Types - Individual Stories Sliced"
               },
               {
                  "name" : "make_mid_story_surfaces_adiabatic",
                  "value" : false
               },
               {
                  "name" : "use_upstream_args",
                  "value" : true
               },
               {
                  "name" : "party_wall_fraction_actual",
                  "value" : 0
               }
            ],
            "step_warnings" : [
               "Could not find color for 90.1-2004 StripMall Strip mall - type 1",
               "Could not find color for 90.1-2004 StripMall Strip mall - type 2",
               "Could not find color for 90.1-2004 StripMall Strip mall - type 3",
               "User-defined single floor area was used for calculation of total building floor area"
            ]
         }
      },
      {
         "arguments" : {
            "add_hvac" : false
         },
         "measure_dir_name" : "create_typical_building_from_model",
         "name" : "create_typical_building_from_model 1",
         "result" : {
            "completed_at" : "20191231T200414Z",
            "measure_class_name" : "CreateTypicalBuildingFromModel",
            "measure_display_name" : "Create Typical Building from Model",
            "measure_name" : "create_typical_building_from_model",
            "measure_taxonomy" : "Whole Building.Space Types",
            "measure_type" : "ModelMeasure",
            "measure_uid" : "339a2e3a-273c-4494-bb50-bfe586a0647c",
            "measure_version_id" : "87ebffcf-eacc-4a82-9543-d033695df855",
            "measure_version_modified" : "20191030T020543Z",
            "measure_xml_checksum" : "EE13F09F",
            "started_at" : "20191231T200404Z",
            "stderr" : "",
            "stdout" : "",
            "step_errors" : [],
            "step_files" : [],
            "step_final_condition" : "The building finished with 1208 objects.",
            "step_info" : [
               "Replacing argument named template from current measure with a value of 90.1-2004 from create_bar_from_building_type_ratios.",
               "Adding loads to space type named StripMall Strip mall - type 2 - 90.1-2004",
               "Adding loads to space type named StripMall Strip mall - type 3 - 90.1-2004",
               "Adding loads to space type named StripMall Strip mall - type 1 - 90.1-2004",
               "Adding default construction set named Res 90.1-2004 - StMall - ASHRAE 169-2013-6A",
               "Adding 9.0 elevators each with power of 16,055 (W), plus lights and fans.",
               "Adding Exterior Lights named Parking Areas and Drives Def (W/ft^2) with design level of 0.15 * 705,282.",
               "Adding Exterior Lights named Building Facades Def (W/ft^2) with design level of 0.2 * 17,664.",
               "Adding Exterior Lights named Main Entries Def (W/ft) with design level of 30.0 * 599.",
               "Adding Exterior Lights named Other Doors Def (W/ft) with design level of 20.0 * 329.",
               "Adding StripMall Strip mall - type 1 - 90.1-2004 Service Water Loop to the building. It has 1 water use connections.",
               "Adding StripMall Strip mall - type 2 - 90.1-2004 Service Water Loop to the building. It has 1 water use connections.",
               "Adding StripMall Strip mall - type 3 - 90.1-2004 Service Water Loop to the building. It has 1 water use connections.",
               "Assigning StripMall Strip mall - type 2 - 90.1-2004 Thermostat to thermal zones with StripMall Strip mall - type 2 - 90.1-2004 assigned.",
               "Assigning StripMall Strip mall - type 3 - 90.1-2004 Thermostat to thermal zones with StripMall Strip mall - type 3 - 90.1-2004 assigned.",
               "Assigning StripMall Strip mall - type 1 - 90.1-2004 Thermostat to thermal zones with StripMall Strip mall - type 1 - 90.1-2004 assigned.",
               "Using OpenStudio Standards version 0.2.10 with template 90.1-2004.",
               "Loading OpenStudio Standards data for 90.1-2004",
               "StripMall Strip mall - type 2 had no people, one has been created.",
               "StripMall Strip mall - type 2 set occupancy to 8.0 people/1000 ft^2.",
               "StripMall Strip mall - type 2 had no lights, one has been created.",
               "StripMall Strip mall - type 2 set LPD to 1.5 W/ft^2.",
               "StripMall Strip mall - type 2 had no electric equipment, one has been created.",
               "StripMall Strip mall - type 2 set electric EPD to 0.4 W/ft^2.",
               "StripMall Strip mall - type 2 had no ventilation specification, one has been created.",
               "StripMall Strip mall - type 2 set ventilation per area to 0.3 cfm/ft^2.",
               "StripMall Strip mall - type 2 set occupancy schedule to RetailStripmall Type2_OCC_SCH.",
               "StripMall Strip mall - type 2 set occupant activity schedule to HotelSmall Activity_Sch.",
               "StripMall Strip mall - type 2 set lighting schedule to RetailStripmall Type2_LIGHT_SCH.",
               "StripMall Strip mall - type 2 set electric equipment schedule to RetailStripmall Type2_EQUIP_SCH.",
               "StripMall Strip mall - type 2 set infiltration schedule to RetailStripmall Type2_Infil_SCH.",
               "StripMall Strip mall - type 3 had no people, one has been created.",
               "StripMall Strip mall - type 3 set occupancy to 8.0 people/1000 ft^2.",
               "StripMall Strip mall - type 3 had no lights, one has been created.",
               "StripMall Strip mall - type 3 set LPD to 1.5 W/ft^2.",
               "StripMall Strip mall - type 3 had no electric equipment, one has been created.",
               "StripMall Strip mall - type 3 set electric EPD to 0.4 W/ft^2.",
               "StripMall Strip mall - type 3 had no ventilation specification, one has been created.",
               "StripMall Strip mall - type 3 set ventilation per area to 0.3 cfm/ft^2.",
               "StripMall Strip mall - type 3 set occupancy schedule to RetailStripmall Type3_OCC_SCH.",
               "StripMall Strip mall - type 3 set occupant activity schedule to HotelSmall Activity_Sch.",
               "StripMall Strip mall - type 3 set lighting schedule to RetailStripmall Type3_LIGHT_SCH.",
               "StripMall Strip mall - type 3 set electric equipment schedule to RetailStripmall Type3_EQUIP_SCH.",
               "StripMall Strip mall - type 3 set infiltration schedule to RetailStripmall Type3_Infil_SCH.",
               "StripMall Strip mall - type 1 had no people, one has been created.",
               "StripMall Strip mall - type 1 set occupancy to 8.0 people/1000 ft^2.",
               "StripMall Strip mall - type 1 had no lights, one has been created.",
               "StripMall Strip mall - type 1 set LPD to 1.5 W/ft^2.",
               "StripMall Strip mall - type 1 had no electric equipment, one has been created.",
               "StripMall Strip mall - type 1 set electric EPD to 0.4 W/ft^2.",
               "StripMall Strip mall - type 1 had no ventilation specification, one has been created.",
               "StripMall Strip mall - type 1 set ventilation per area to 0.3 cfm/ft^2.",
               "StripMall Strip mall - type 1 set occupancy schedule to RetailStripmall Type1_OCC_SCH.",
               "StripMall Strip mall - type 1 set occupant activity schedule to HotelSmall Activity_Sch.",
               "StripMall Strip mall - type 1 set lighting schedule to RetailStripmall Type1_LIGHT_SCH.",
               "StripMall Strip mall - type 1 set electric equipment schedule to RetailStripmall Type1_EQUIP_SCH.",
               "StripMall Strip mall - type 1 set infiltration schedule to RetailStripmall Type1_Infil_SCH.",
               "Adding construction set: 90.1-2004-ASHRAE 169-2013-6A-StripMall--is_residentialNo",
               "Adding construction Typical Insulated Exterior Mass Floor R-11.49.",
               "Adding construction Typical Insulated Steel Framed Exterior Wall R-11.9.",
               "Adding construction Typical IEAD Roof R-15.87.",
               "Adding construction Typical Interior Floor.",
               "Adding construction Typical Interior Wall.",
               "Adding construction Typical Interior Ceiling.",
               "Adding construction Typical Insulated Carpeted 6in Slab Floor.",
               "Adding construction Typical Insulated Basement Mass Wall.",
               "Adding construction U 0.57 SHGC 0.49 Dbl Blue 6mm/6mm Air.",
               "Adding construction Typical Insulated Metal Door R-1.43.",
               "Adding construction Typical Overhead Door R-2.0.",
               "Adding construction U 1.17 SHGC 0.49 Simple Glazing Skylight U-1.17 SHGC 0.0.",
               "Adding construction Typical Interior Window.",
               "Adding construction Typical Interior Door.",
               "Adding construction Typical Interior Partition.",
               "For StripMall Strip mall - type 1 A  - Story Ground, set infiltration rate to 0.202 cfm/ft2 exterior wall area (aka 1.8 cfm/ft2 @75Pa).",
               "For StripMall Strip mall - type 1 A end_a - Story Ground, set infiltration rate to 0.202 cfm/ft2 exterior wall area (aka 1.8 cfm/ft2 @75Pa).",
               "For StripMall Strip mall - type 1 B  - Story Ground, no exterior wall area was found, no infiltration will be added.",
               "For StripMall Strip mall - type 1 B end_a - Story Ground, set infiltration rate to 0.202 cfm/ft2 exterior wall area (aka 1.8 cfm/ft2 @75Pa).",
               "For StripMall Strip mall - type 1 C  - Story Ground, set infiltration rate to 0.202 cfm/ft2 exterior wall area (aka 1.8 cfm/ft2 @75Pa).",
               "For StripMall Strip mall - type 1 C end_a - Story Ground, set infiltration rate to 0.202 cfm/ft2 exterior wall area (aka 1.8 cfm/ft2 @75Pa).",
               "For StripMall Strip mall - type 2 A  - Story Ground, set infiltration rate to 0.202 cfm/ft2 exterior wall area (aka 1.8 cfm/ft2 @75Pa).",
               "For StripMall Strip mall - type 2 A  - Story Mid, set infiltration rate to 0.202 cfm/ft2 exterior wall area (aka 1.8 cfm/ft2 @75Pa).",
               "For StripMall Strip mall - type 2 A end_b - Story Ground, set infiltration rate to 0.202 cfm/ft2 exterior wall area (aka 1.8 cfm/ft2 @75Pa).",
               "For StripMall Strip mall - type 2 A end_b - Story Mid, set infiltration rate to 0.202 cfm/ft2 exterior wall area (aka 1.8 cfm/ft2 @75Pa).",
               "For StripMall Strip mall - type 2 B  - Story Ground, no exterior wall area was found, no infiltration will be added.",
               "For StripMall Strip mall - type 2 B  - Story Mid, no exterior wall area was found, no infiltration will be added.",
               "For StripMall Strip mall - type 2 B end_b - Story Ground, set infiltration rate to 0.202 cfm/ft2 exterior wall area (aka 1.8 cfm/ft2 @75Pa).",
               "For StripMall Strip mall - type 2 B end_b - Story Mid, set infiltration rate to 0.202 cfm/ft2 exterior wall area (aka 1.8 cfm/ft2 @75Pa).",
               "For StripMall Strip mall - type 2 C  - Story Ground, set infiltration rate to 0.202 cfm/ft2 exterior wall area (aka 1.8 cfm/ft2 @75Pa).",
               "For StripMall Strip mall - type 2 C  - Story Mid, set infiltration rate to 0.202 cfm/ft2 exterior wall area (aka 1.8 cfm/ft2 @75Pa).",
               "For StripMall Strip mall - type 2 C end_b - Story Ground, set infiltration rate to 0.202 cfm/ft2 exterior wall area (aka 1.8 cfm/ft2 @75Pa).",
               "For StripMall Strip mall - type 2 C end_b - Story Mid, set infiltration rate to 0.202 cfm/ft2 exterior wall area (aka 1.8 cfm/ft2 @75Pa).",
               "For StripMall Strip mall - type 3 A  - Story Mid, set infiltration rate to 0.202 cfm/ft2 exterior wall area (aka 1.8 cfm/ft2 @75Pa).",
               "For StripMall Strip mall - type 3 A  - Story Top, set infiltration rate to 0.202 cfm/ft2 exterior wall area (aka 1.8 cfm/ft2 @75Pa).",
               "For StripMall Strip mall - type 3 A end_a - Story Mid, set infiltration rate to 0.202 cfm/ft2 exterior wall area (aka 1.8 cfm/ft2 @75Pa).",
               "For StripMall Strip mall - type 3 A end_a - Story Top, set infiltration rate to 0.202 cfm/ft2 exterior wall area (aka 1.8 cfm/ft2 @75Pa).",
               "For StripMall Strip mall - type 3 A end_b - Story Top, set infiltration rate to 0.202 cfm/ft2 exterior wall area (aka 1.8 cfm/ft2 @75Pa).",
               "For StripMall Strip mall - type 3 B  - Story Mid, no exterior wall area was found, no infiltration will be added.",
               "For StripMall Strip mall - type 3 B  - Story Top, no exterior wall area was found, no infiltration will be added.",
               "For StripMall Strip mall - type 3 B end_a - Story Mid, set infiltration rate to 0.202 cfm/ft2 exterior wall area (aka 1.8 cfm/ft2 @75Pa).",
               "For StripMall Strip mall - type 3 B end_a - Story Top, set infiltration rate to 0.202 cfm/ft2 exterior wall area (aka 1.8 cfm/ft2 @75Pa).",
               "For StripMall Strip mall - type 3 B end_b - Story Top, set infiltration rate to 0.202 cfm/ft2 exterior wall area (aka 1.8 cfm/ft2 @75Pa).",
               "For StripMall Strip mall - type 3 C  - Story Mid, set infiltration rate to 0.202 cfm/ft2 exterior wall area (aka 1.8 cfm/ft2 @75Pa).",
               "For StripMall Strip mall - type 3 C  - Story Top, set infiltration rate to 0.202 cfm/ft2 exterior wall area (aka 1.8 cfm/ft2 @75Pa).",
               "For StripMall Strip mall - type 3 C end_a - Story Mid, set infiltration rate to 0.202 cfm/ft2 exterior wall area (aka 1.8 cfm/ft2 @75Pa).",
               "For StripMall Strip mall - type 3 C end_a - Story Top, set infiltration rate to 0.202 cfm/ft2 exterior wall area (aka 1.8 cfm/ft2 @75Pa).",
               "For StripMall Strip mall - type 3 C end_b - Story Top, set infiltration rate to 0.202 cfm/ft2 exterior wall area (aka 1.8 cfm/ft2 @75Pa).",
               "The building has fewer than 6 effective stories; assuming Hydraulic elevators.",
               "For StripMall Strip mall - type 1 - 90.1-2004, floor area = 93602 ft^2.",
               "For StripMall Strip mall - type 1 - 90.1-2004, number of spaces = 6.",
               "For StripMall Strip mall - type 1 - 90.1-2004, number of units = 41.60099999999996.",
               "For StripMall Strip mall - type 1 - 90.1-2004, number of people = 749.",
               "For StripMall Strip mall - type 2 - 90.1-2004, floor area = 93602 ft^2.",
               "For StripMall Strip mall - type 2 - 90.1-2004, number of spaces = 12.",
               "For StripMall Strip mall - type 2 - 90.1-2004, number of units = 41.601000000000184.",
               "For StripMall Strip mall - type 2 - 90.1-2004, number of people = 749.",
               "For StripMall Strip mall - type 3 - 90.1-2004, floor area = 187205 ft^2.",
               "For StripMall Strip mall - type 3 - 90.1-2004, number of spaces = 15.",
               "For StripMall Strip mall - type 3 - 90.1-2004, number of units = 83.20200000000041.",
               "For StripMall Strip mall - type 3 - 90.1-2004, number of people = 1498.",
               "For StripMall Strip mall - type 1 - 90.1-2004, adding 2.1 passenger elevators at 1 per 45000.0 ft^2.",
               "Unexpected key, can't calculate number of freight elevators from template.",
               "For StripMall Strip mall - type 2 - 90.1-2004, adding 2.1 passenger elevators at 1 per 45000.0 ft^2.",
               "Unexpected key, can't calculate number of freight elevators from template.",
               "For StripMall Strip mall - type 3 - 90.1-2004, adding 4.2 passenger elevators at 1 per 45000.0 ft^2.",
               "Unexpected key, can't calculate number of freight elevators from template.",
               "No additional passenger elevators added to model.",
               "Adding 9.0 Hydraulic elevators to the model in StripMall Strip mall - type 1 B  - Story Ground.",
               "For StripMall Strip mall - type 1 - 90.1-2004, floor area = 93602 ft^2.",
               "For StripMall Strip mall - type 1 - 90.1-2004, number of spaces = 6.",
               "For StripMall Strip mall - type 1 - 90.1-2004, number of units = 41.60099999999996.",
               "For StripMall Strip mall - type 1 - 90.1-2004, number of people = 749.",
               "For StripMall Strip mall - type 2 - 90.1-2004, floor area = 93602 ft^2.",
               "For StripMall Strip mall - type 2 - 90.1-2004, number of spaces = 12.",
               "For StripMall Strip mall - type 2 - 90.1-2004, number of units = 41.601000000000184.",
               "For StripMall Strip mall - type 2 - 90.1-2004, number of people = 749.",
               "For StripMall Strip mall - type 3 - 90.1-2004, floor area = 187205 ft^2.",
               "For StripMall Strip mall - type 3 - 90.1-2004, number of spaces = 15.",
               "For StripMall Strip mall - type 3 - 90.1-2004, number of units = 83.20200000000041.",
               "For StripMall Strip mall - type 3 - 90.1-2004, number of people = 1498.",
               "Facade and Landscape exterior lights shut off from {:hr=>24, :min=>0} to {:hr=>6, :min=>0}",
               "Added 0.15 W/ft^2 of lighting for 705282.0697674443 ft^2 of parking area.",
               "Added 0.2 W/ft^2 of lighting for 17663.73403332378 ft^2 of building facade area.",
               "Added 30.0 W/ft of lighting for 599.054400000002 ft of main entry length.",
               "Added 20.0 W/ft of lighting for 329.4799200000011 ft of other doors.",
               "For StripMall Strip mall - type 1 - 90.1-2004, floor area = 93602 ft^2.",
               "For StripMall Strip mall - type 1 - 90.1-2004, number of spaces = 6.",
               "For StripMall Strip mall - type 1 - 90.1-2004, number of units = 41.60099999999996.",
               "For StripMall Strip mall - type 1 - 90.1-2004, number of people = 749.",
               "For StripMall Strip mall - type 2 - 90.1-2004, floor area = 93602 ft^2.",
               "For StripMall Strip mall - type 2 - 90.1-2004, number of spaces = 12.",
               "For StripMall Strip mall - type 2 - 90.1-2004, number of units = 41.601000000000184.",
               "For StripMall Strip mall - type 2 - 90.1-2004, number of people = 749.",
               "For StripMall Strip mall - type 3 - 90.1-2004, floor area = 187205 ft^2.",
               "For StripMall Strip mall - type 3 - 90.1-2004, number of spaces = 15.",
               "For StripMall Strip mall - type 3 - 90.1-2004, number of units = 83.20200000000041.",
               "For StripMall Strip mall - type 3 - 90.1-2004, number of people = 1498.",
               "Added StripMall Strip mall - type 1 - 90.1-2004 42 units Service Water Use 1.26gpm at 140F.",
               "Added water heater called 42X 50gal Electricity Water Heater - 20kBtu/hr",
               "Pipe length 20ft. For non-circulating systems, assume water heater is close to point of use.",
               "Piping length has been multiplied by 42X because 42X 50gal Electricity Water Heater - 20kBtu/hr represents 42 pieces of equipment.",
               "Added 840ft of Uninsulated copper pipe 0.75in type L losing heat to 70F air to StripMall Strip mall - type 1 - 90.1-2004 Service Water Loop.",
               "Added non-circulating SWH loop called StripMall Strip mall - type 1 - 90.1-2004 Service Water Loop",
               "Added StripMall Strip mall - type 2 - 90.1-2004 42 units Service Water Use 1.26gpm at 140F.",
               "Added water heater called 42X 50gal Electricity Water Heater - 20kBtu/hr 1",
               "Pipe length 20ft. For non-circulating systems, assume water heater is close to point of use.",
               "Piping length has been multiplied by 42X because 42X 50gal Electricity Water Heater - 20kBtu/hr 1 represents 42 pieces of equipment.",
               "Added 840ft of Uninsulated copper pipe 0.75in type L 1 losing heat to 70F air to StripMall Strip mall - type 2 - 90.1-2004 Service Water Loop.",
               "Added non-circulating SWH loop called StripMall Strip mall - type 2 - 90.1-2004 Service Water Loop",
               "Added StripMall Strip mall - type 3 - 90.1-2004 83 units Service Water Use 2.49gpm at 140F.",
               "Added water heater called 83X 50gal Electricity Water Heater - 20kBtu/hr",
               "Pipe length 20ft. For non-circulating systems, assume water heater is close to point of use.",
               "Piping length has been multiplied by 83X because 83X 50gal Electricity Water Heater - 20kBtu/hr represents 83 pieces of equipment.",
               "Added 1660ft of Uninsulated copper pipe 0.75in type L 2 losing heat to 70F air to StripMall Strip mall - type 3 - 90.1-2004 Service Water Loop.",
               "Added non-circulating SWH loop called StripMall Strip mall - type 3 - 90.1-2004 Service Water Loop",
               "Started adding daylighting controls.",
               "For StripMall Strip mall - type 1 B  - Story Ground, daylighting control not applicable because no exterior fenestration is present.",
               "For StripMall Strip mall - type 2 B  - Story Ground, daylighting control not applicable because no exterior fenestration is present.",
               "For StripMall Strip mall - type 2 B  - Story Mid, daylighting control not applicable because no exterior fenestration is present.",
               "For StripMall Strip mall - type 3 B  - Story Mid, daylighting control not applicable because no exterior fenestration is present.",
               "For StripMall Strip mall - type 3 B  - Story Top, daylighting control not applicable because no exterior fenestration is present.",
               "Finished adding daylighting controls.",
               "StripMall Strip mall - type 2 - 90.1-2004 set heating setpoint schedule to RetailStripmall Type2_HTGSETP_SCH_NO_OPTIMUM.",
               "StripMall Strip mall - type 2 - 90.1-2004 set cooling setpoint schedule to RetailStripmall Type2_CLGSETP_SCH_NO_SETBACK.",
               "StripMall Strip mall - type 3 - 90.1-2004 set heating setpoint schedule to RetailStripmall Type3_HTGSETP_SCH_NO_OPTIMUM.",
               "StripMall Strip mall - type 3 - 90.1-2004 set cooling setpoint schedule to RetailStripmall Type3_CLGSETP_SCH_NO_SETBACK.",
               "StripMall Strip mall - type 1 - 90.1-2004 set heating setpoint schedule to RetailStripmall Type1_HTGSETP_SCH_NO_OPTIMUM.",
               "StripMall Strip mall - type 1 - 90.1-2004 set cooling setpoint schedule to RetailStripmall Type1_CLGSETP_SCH_NO_SETBACK.",
               "Cannot remove Object of type 'OS:Schedule:Day' and named 'Schedule Day 41', because that would invalidate Object of type 'OS:Schedule:Ruleset' and named 'Schedule Ruleset 7'.",
               "Cannot remove Object of type 'OS:Schedule:Day' and named 'Schedule Day 40', because that would invalidate Object of type 'OS:Schedule:Ruleset' and named 'Schedule Ruleset 6'.",
               "Cannot remove Object of type 'OS:Schedule:Day' and named 'Schedule Day 36', because that would invalidate Object of type 'OS:Schedule:Ruleset' and named 'Schedule Ruleset 4'.",
               "Cannot remove Object of type 'OS:Schedule:Day' and named 'Schedule Day 33', because that would invalidate Object of type 'OS:Schedule:Ruleset' and named 'Schedule Ruleset 3'.",
               "Cannot remove Object of type 'OS:Schedule:Day' and named 'Schedule Day 32', because that would invalidate Object of type 'OS:Schedule:Ruleset' and named 'Schedule Ruleset 2'."
            ],
            "step_initial_condition" : "The building started with 567 objects.",
            "step_result" : "Success",
            "step_values" : [
               {
                  "name" : "template",
                  "value" : "90.1-2004"
               },
               {
                  "name" : "system_type",
                  "value" : "Inferred"
               },
               {
                  "name" : "hvac_delivery_type",
                  "value" : "Forced Air"
               },
               {
                  "name" : "htg_src",
                  "value" : "NaturalGas"
               },
               {
                  "name" : "clg_src",
                  "value" : "Electricity"
               },
               {
                  "name" : "kitchen_makeup",
                  "value" : "Adjacent"
               },
               {
                  "name" : "exterior_lighting_zone",
                  "value" : "3 - All Other Areas"
               },
               {
                  "name" : "add_constructions",
                  "value" : true
               },
               {
                  "name" : "add_space_type_loads",
                  "value" : true
               },
               {
                  "name" : "add_elevators",
                  "value" : true
               },
               {
                  "name" : "add_exterior_lights",
                  "value" : true
               },
               {
                  "name" : "onsite_parking_fraction",
                  "value" : 1
               },
               {
                  "name" : "add_exhaust",
                  "value" : true
               },
               {
                  "name" : "add_swh",
                  "value" : true
               },
               {
                  "name" : "add_thermostat",
                  "value" : true
               },
               {
                  "name" : "add_hvac",
                  "value" : false
               },
               {
                  "name" : "remove_objects",
                  "value" : true
               },
               {
                  "name" : "use_upstream_args",
                  "value" : true
               },
               {
                  "name" : "enable_dst",
                  "value" : true
               }
            ],
            "step_warnings" : [
               "[openstudio.standards.Model] Find object search criteria returned 5 results, the first one will be returned. Called from /Users/tkwasnik/github/urbanopt-example-geojson-reopt-project/.bundle/install/ruby/2.2.0/gems/openstudio-standards-0.2.10/lib/openstudio-standards/standards/Standards.Model.rb:2431:in `model_find_and_add_construction'. \n Search criteria: \n {\"template\"=>\"90.1-2004\", \"climate_zone_set\"=>\"ClimateZone 6\", \"intended_surface_type\"=>\"ExteriorWindow\", \"standards_construction_type\"=>\"Metal framing (all other)\", \"building_category\"=>\"Nonresidential\"}, capacity =  \n  All results: \n {\"template\"=>\"90.1-2004\", \"climate_zone_set\"=>\"ClimateZone 6\", \"operation_type\"=>nil, \"intended_surface_type\"=>\"ExteriorWindow\", \"standards_construction_type\"=>\"Metal framing (all other)\", \"building_category\"=>\"Nonresidential\", \"construction\"=>\"U 0.57 SHGC 0.49 Dbl Blue 6mm/6mm Air\", \"orientation\"=>nil, \"minimum_percent_of_surface\"=>1.0, \"maximum_percent_of_surface\"=>10.0, \"assembly_maximum_u_value\"=>0.57, \"u_value_includes_interior_film_coefficient\"=>true, \"u_value_includes_exterior_film_coefficient\"=>true, \"assembly_maximum_f_factor\"=>nil, \"assembly_maximum_c_factor\"=>nil, \"assembly_maximum_solar_heat_gain_coefficient\"=>0.49, \"assembly_minimum_vt_shgc\"=>nil, \"notes\"=>nil}\n{\"template\"=>\"90.1-2004\", \"climate_zone_set\"=>\"ClimateZone 6\", \"operation_type\"=>nil, \"intended_surface_type\"=>\"ExteriorWindow\", \"standards_construction_type\"=>\"Metal framing (all other)\", \"building_category\"=>\"Nonresidential\", \"construction\"=>\"U 0.57 SHGC 0.39 Dbl Ref-D Clr 6mm/6mm Air\", \"orientation\"=>nil, \"minimum_percent_of_surface\"=>10.001, \"maximum_percent_of_surface\"=>20.0, \"assembly_maximum_u_value\"=>0.57, \"u_value_includes_interior_film_coefficient\"=>true, \"u_value_includes_exterior_film_coefficient\"=>true, \"assembly_maximum_f_factor\"=>nil, \"assembly_maximum_c_factor\"=>nil, \"assembly_maximum_solar_heat_gain_coefficient\"=>0.39, \"assembly_minimum_vt_shgc\"=>nil, \"notes\"=>nil}\n{\"template\"=>\"90.1-2004\", \"climate_zone_set\"=>\"ClimateZone 6\", \"operation_type\"=>nil, \"intended_surface_type\"=>\"ExteriorWindow\", \"standards_construction_type\"=>\"Metal framing (all other)\", \"building_category\"=>\"Nonresidential\", \"construction\"=>\"U 0.57 SHGC 0.39 Dbl Ref-D Clr 6mm/6mm Air\", \"orientation\"=>nil, \"minimum_percent_of_surface\"=>20.001, \"maximum_percent_of_surface\"=>30.0, \"assembly_maximum_u_value\"=>0.57, \"u_value_includes_interior_film_coefficient\"=>true, \"u_value_includes_exterior_film_coefficient\"=>true, \"assembly_maximum_f_factor\"=>nil, \"assembly_maximum_c_factor\"=>nil, \"assembly_maximum_solar_heat_gain_coefficient\"=>0.39, \"assembly_minimum_vt_shgc\"=>nil, \"notes\"=>nil}\n{\"template\"=>\"90.1-2004\", \"climate_zone_set\"=>\"ClimateZone 6\", \"operation_type\"=>nil, \"intended_surface_type\"=>\"ExteriorWindow\", \"standards_construction_type\"=>\"Metal framing (all other)\", \"building_category\"=>\"Nonresidential\", \"construction\"=>\"U 0.57 SHGC 0.39 Dbl Ref-D Clr 6mm/6mm Air\", \"orientation\"=>nil, \"minimum_percent_of_surface\"=>30.001, \"maximum_percent_of_surface\"=>40.0, \"assembly_maximum_u_value\"=>0.57, \"u_value_includes_interior_film_coefficient\"=>true, \"u_value_includes_exterior_film_coefficient\"=>true, \"assembly_maximum_f_factor\"=>nil, \"assembly_maximum_c_factor\"=>nil, \"assembly_maximum_solar_heat_gain_coefficient\"=>0.39, \"assembly_minimum_vt_shgc\"=>nil, \"notes\"=>nil}\n{\"template\"=>\"90.1-2004\", \"climate_zone_set\"=>\"ClimateZone 6\", \"operation_type\"=>nil, \"intended_surface_type\"=>\"ExteriorWindow\", \"standards_construction_type\"=>\"Metal framing (all other)\", \"building_category\"=>\"Nonresidential\", \"construction\"=>\"U 0.44 SHGC 0.20 Dbl Ref-B-H Tint 6mm/13mm Air\", \"orientation\"=>nil, \"minimum_percent_of_surface\"=>40.001, \"maximum_percent_of_surface\"=>100.0, \"assembly_maximum_u_value\"=>0.46, \"u_value_includes_interior_film_coefficient\"=>true, \"u_value_includes_exterior_film_coefficient\"=>true, \"assembly_maximum_f_factor\"=>nil, \"assembly_maximum_c_factor\"=>nil, \"assembly_maximum_solar_heat_gain_coefficient\"=>0.26, \"assembly_minimum_vt_shgc\"=>nil, \"notes\"=>nil}",
               "[openstudio.standards.ConstructionBase] Can only set the u-value of opaque constructions or simple glazing. U 0.57 SHGC 0.49 Dbl Blue 6mm/6mm Air is not opaque or simple glazing.",
               "[openstudio.standards.Model] Find object search criteria returned 5 results, the first one will be returned. Called from /Users/tkwasnik/github/urbanopt-example-geojson-reopt-project/.bundle/install/ruby/2.2.0/gems/openstudio-standards-0.2.10/lib/openstudio-standards/standards/Standards.Model.rb:2431:in `model_find_and_add_construction'. \n Search criteria: \n {\"template\"=>\"90.1-2004\", \"climate_zone_set\"=>\"ClimateZone 6\", \"intended_surface_type\"=>\"ExteriorWindow\", \"standards_construction_type\"=>\"Metal framing (all other)\", \"building_category\"=>\"Nonresidential\"}, capacity =  \n  All results: \n {\"template\"=>\"90.1-2004\", \"climate_zone_set\"=>\"ClimateZone 6\", \"operation_type\"=>nil, \"intended_surface_type\"=>\"ExteriorWindow\", \"standards_construction_type\"=>\"Metal framing (all other)\", \"building_category\"=>\"Nonresidential\", \"construction\"=>\"U 0.57 SHGC 0.49 Dbl Blue 6mm/6mm Air\", \"orientation\"=>nil, \"minimum_percent_of_surface\"=>1.0, \"maximum_percent_of_surface\"=>10.0, \"assembly_maximum_u_value\"=>0.57, \"u_value_includes_interior_film_coefficient\"=>true, \"u_value_includes_exterior_film_coefficient\"=>true, \"assembly_maximum_f_factor\"=>nil, \"assembly_maximum_c_factor\"=>nil, \"assembly_maximum_solar_heat_gain_coefficient\"=>0.49, \"assembly_minimum_vt_shgc\"=>nil, \"notes\"=>nil}\n{\"template\"=>\"90.1-2004\", \"climate_zone_set\"=>\"ClimateZone 6\", \"operation_type\"=>nil, \"intended_surface_type\"=>\"ExteriorWindow\", \"standards_construction_type\"=>\"Metal framing (all other)\", \"building_category\"=>\"Nonresidential\", \"construction\"=>\"U 0.57 SHGC 0.39 Dbl Ref-D Clr 6mm/6mm Air\", \"orientation\"=>nil, \"minimum_percent_of_surface\"=>10.001, \"maximum_percent_of_surface\"=>20.0, \"assembly_maximum_u_value\"=>0.57, \"u_value_includes_interior_film_coefficient\"=>true, \"u_value_includes_exterior_film_coefficient\"=>true, \"assembly_maximum_f_factor\"=>nil, \"assembly_maximum_c_factor\"=>nil, \"assembly_maximum_solar_heat_gain_coefficient\"=>0.39, \"assembly_minimum_vt_shgc\"=>nil, \"notes\"=>nil}\n{\"template\"=>\"90.1-2004\", \"climate_zone_set\"=>\"ClimateZone 6\", \"operation_type\"=>nil, \"intended_surface_type\"=>\"ExteriorWindow\", \"standards_construction_type\"=>\"Metal framing (all other)\", \"building_category\"=>\"Nonresidential\", \"construction\"=>\"U 0.57 SHGC 0.39 Dbl Ref-D Clr 6mm/6mm Air\", \"orientation\"=>nil, \"minimum_percent_of_surface\"=>20.001, \"maximum_percent_of_surface\"=>30.0, \"assembly_maximum_u_value\"=>0.57, \"u_value_includes_interior_film_coefficient\"=>true, \"u_value_includes_exterior_film_coefficient\"=>true, \"assembly_maximum_f_factor\"=>nil, \"assembly_maximum_c_factor\"=>nil, \"assembly_maximum_solar_heat_gain_coefficient\"=>0.39, \"assembly_minimum_vt_shgc\"=>nil, \"notes\"=>nil}\n{\"template\"=>\"90.1-2004\", \"climate_zone_set\"=>\"ClimateZone 6\", \"operation_type\"=>nil, \"intended_surface_type\"=>\"ExteriorWindow\", \"standards_construction_type\"=>\"Metal framing (all other)\", \"building_category\"=>\"Nonresidential\", \"construction\"=>\"U 0.57 SHGC 0.39 Dbl Ref-D Clr 6mm/6mm Air\", \"orientation\"=>nil, \"minimum_percent_of_surface\"=>30.001, \"maximum_percent_of_surface\"=>40.0, \"assembly_maximum_u_value\"=>0.57, \"u_value_includes_interior_film_coefficient\"=>true, \"u_value_includes_exterior_film_coefficient\"=>true, \"assembly_maximum_f_factor\"=>nil, \"assembly_maximum_c_factor\"=>nil, \"assembly_maximum_solar_heat_gain_coefficient\"=>0.39, \"assembly_minimum_vt_shgc\"=>nil, \"notes\"=>nil}\n{\"template\"=>\"90.1-2004\", \"climate_zone_set\"=>\"ClimateZone 6\", \"operation_type\"=>nil, \"intended_surface_type\"=>\"ExteriorWindow\", \"standards_construction_type\"=>\"Metal framing (all other)\", \"building_category\"=>\"Nonresidential\", \"construction\"=>\"U 0.44 SHGC 0.20 Dbl Ref-B-H Tint 6mm/13mm Air\", \"orientation\"=>nil, \"minimum_percent_of_surface\"=>40.001, \"maximum_percent_of_surface\"=>100.0, \"assembly_maximum_u_value\"=>0.46, \"u_value_includes_interior_film_coefficient\"=>true, \"u_value_includes_exterior_film_coefficient\"=>true, \"assembly_maximum_f_factor\"=>nil, \"assembly_maximum_c_factor\"=>nil, \"assembly_maximum_solar_heat_gain_coefficient\"=>0.26, \"assembly_minimum_vt_shgc\"=>nil, \"notes\"=>nil}",
               "[openstudio.standards.Model] Find object search criteria returned 5 results, the first one will be returned. Called from /Users/tkwasnik/github/urbanopt-example-geojson-reopt-project/.bundle/install/ruby/2.2.0/gems/openstudio-standards-0.2.10/lib/openstudio-standards/standards/Standards.Model.rb:2431:in `model_find_and_add_construction'. \n Search criteria: \n {\"template\"=>\"90.1-2004\", \"climate_zone_set\"=>\"ClimateZone 6\", \"intended_surface_type\"=>\"GlassDoor\", \"standards_construction_type\"=>\"Metal framing (entrance door)\", \"building_category\"=>\"Nonresidential\"}, capacity =  \n  All results: \n {\"template\"=>\"90.1-2004\", \"climate_zone_set\"=>\"ClimateZone 6\", \"operation_type\"=>nil, \"intended_surface_type\"=>\"GlassDoor\", \"standards_construction_type\"=>\"Metal framing (entrance door)\", \"building_category\"=>\"Nonresidential\", \"construction\"=>\"U 0.57 SHGC 0.49 Dbl Blue 6mm/6mm Air\", \"orientation\"=>nil, \"minimum_percent_of_surface\"=>1.0, \"maximum_percent_of_surface\"=>10.0, \"assembly_maximum_u_value\"=>0.57, \"u_value_includes_interior_film_coefficient\"=>true, \"u_value_includes_exterior_film_coefficient\"=>true, \"assembly_maximum_f_factor\"=>nil, \"assembly_maximum_c_factor\"=>nil, \"assembly_maximum_solar_heat_gain_coefficient\"=>0.49, \"assembly_minimum_vt_shgc\"=>nil, \"notes\"=>nil}\n{\"template\"=>\"90.1-2004\", \"climate_zone_set\"=>\"ClimateZone 6\", \"operation_type\"=>nil, \"intended_surface_type\"=>\"GlassDoor\", \"standards_construction_type\"=>\"Metal framing (entrance door)\", \"building_category\"=>\"Nonresidential\", \"construction\"=>\"U 0.57 SHGC 0.39 Dbl Ref-D Clr 6mm/6mm Air\", \"orientation\"=>nil, \"minimum_percent_of_surface\"=>10.001, \"maximum_percent_of_surface\"=>20.0, \"assembly_maximum_u_value\"=>0.57, \"u_value_includes_interior_film_coefficient\"=>true, \"u_value_includes_exterior_film_coefficient\"=>true, \"assembly_maximum_f_factor\"=>nil, \"assembly_maximum_c_factor\"=>nil, \"assembly_maximum_solar_heat_gain_coefficient\"=>0.39, \"assembly_minimum_vt_shgc\"=>nil, \"notes\"=>nil}\n{\"template\"=>\"90.1-2004\", \"climate_zone_set\"=>\"ClimateZone 6\", \"operation_type\"=>nil, \"intended_surface_type\"=>\"GlassDoor\", \"standards_construction_type\"=>\"Metal framing (entrance door)\", \"building_category\"=>\"Nonresidential\", \"construction\"=>\"U 0.57 SHGC 0.39 Dbl Ref-D Clr 6mm/6mm Air\", \"orientation\"=>nil, \"minimum_percent_of_surface\"=>20.001, \"maximum_percent_of_surface\"=>30.0, \"assembly_maximum_u_value\"=>0.57, \"u_value_includes_interior_film_coefficient\"=>true, \"u_value_includes_exterior_film_coefficient\"=>true, \"assembly_maximum_f_factor\"=>nil, \"assembly_maximum_c_factor\"=>nil, \"assembly_maximum_solar_heat_gain_coefficient\"=>0.39, \"assembly_minimum_vt_shgc\"=>nil, \"notes\"=>nil}\n{\"template\"=>\"90.1-2004\", \"climate_zone_set\"=>\"ClimateZone 6\", \"operation_type\"=>nil, \"intended_surface_type\"=>\"GlassDoor\", \"standards_construction_type\"=>\"Metal framing (entrance door)\", \"building_category\"=>\"Nonresidential\", \"construction\"=>\"U 0.57 SHGC 0.39 Dbl Ref-D Clr 6mm/6mm Air\", \"orientation\"=>nil, \"minimum_percent_of_surface\"=>30.001, \"maximum_percent_of_surface\"=>40.0, \"assembly_maximum_u_value\"=>0.57, \"u_value_includes_interior_film_coefficient\"=>true, \"u_value_includes_exterior_film_coefficient\"=>true, \"assembly_maximum_f_factor\"=>nil, \"assembly_maximum_c_factor\"=>nil, \"assembly_maximum_solar_heat_gain_coefficient\"=>0.39, \"assembly_minimum_vt_shgc\"=>nil, \"notes\"=>nil}\n{\"template\"=>\"90.1-2004\", \"climate_zone_set\"=>\"ClimateZone 6\", \"operation_type\"=>nil, \"intended_surface_type\"=>\"GlassDoor\", \"standards_construction_type\"=>\"Metal framing (entrance door)\", \"building_category\"=>\"Nonresidential\", \"construction\"=>\"U 0.44 SHGC 0.20 Dbl Ref-B-H Tint 6mm/13mm Air\", \"orientation\"=>nil, \"minimum_percent_of_surface\"=>40.001, \"maximum_percent_of_surface\"=>100.0, \"assembly_maximum_u_value\"=>0.46, \"u_value_includes_interior_film_coefficient\"=>true, \"u_value_includes_exterior_film_coefficient\"=>true, \"assembly_maximum_f_factor\"=>nil, \"assembly_maximum_c_factor\"=>nil, \"assembly_maximum_solar_heat_gain_coefficient\"=>0.26, \"assembly_minimum_vt_shgc\"=>nil, \"notes\"=>nil}",
               "[openstudio.weather.Model] Could not find ground temperatures; will use generic temperatures, which will skew results.",
               "[openstudio.model.Model] In model_add_typical, num_water_heaters = 42",
               "[openstudio.model.Model] In model_add_typical, num_water_heaters = 42",
               "[openstudio.model.Model] In model_add_typical, num_water_heaters = 83"
            ]
         }
      },
      {
         "arguments" : {
            "blend_method" : "Building Story"
         },
         "measure_dir_name" : "blended_space_type_from_model",
         "result" : {
            "completed_at" : "20191231T200414Z",
            "measure_class_name" : "BlendedSpaceTypeFromModel",
            "measure_display_name" : "Blended Space Type from Model",
            "measure_name" : "blended_space_type_from_model",
            "measure_taxonomy" : "Whole Building.Space Types",
            "measure_type" : "ModelMeasure",
            "measure_uid" : "667c2f1f-0927-4dbd-a7be-1087b5c15181",
            "measure_version_id" : "6822700e-3ee7-47bf-8bec-d90833ec1968",
            "measure_version_modified" : "20191030T020542Z",
            "measure_xml_checksum" : "28AD5222",
            "started_at" : "20191231T200414Z",
            "stderr" : "",
            "stdout" : "",
            "step_errors" : [],
            "step_files" : [],
            "step_final_condition" : "The final building uses 3 spaces types.",
            "step_info" : [
               "Story Ground area is 124,803.00 ft^2, number of people is 998.",
               "Story Ground accounts for 2 space types.",
               "Blending space type StripMall Strip mall - type 1 - 90.1-2004 Story Ground. Floor area ratio is 0.75. People ratio is 0.75",
               "Blending space type StripMall Strip mall - type 2 - 90.1-2004 Story Ground. Floor area ratio is 0.25. People ratio is 0.25",
               "Blending space StripMall Strip mall - type 1 A  - Story Ground. Floor area ratio is 0.062. People ratio is 0.062",
               "Blending space StripMall Strip mall - type 1 B  - Story Ground. Floor area ratio is 0.605. People ratio is 0.605",
               "Blending space StripMall Strip mall - type 1 C  - Story Ground. Floor area ratio is 0.062. People ratio is 0.062",
               "Blending space StripMall Strip mall - type 1 A end_a - Story Ground. Floor area ratio is 0.002. People ratio is 0.002",
               "Blending space StripMall Strip mall - type 1 C end_a - Story Ground. Floor area ratio is 0.002. People ratio is 0.002",
               "Blending space StripMall Strip mall - type 1 B end_a - Story Ground. Floor area ratio is 0.018. People ratio is 0.018",
               "Blending space StripMall Strip mall - type 2 C end_b - Story Ground. Floor area ratio is 0.002. People ratio is 0.002",
               "Blending space StripMall Strip mall - type 2 A end_b - Story Ground. Floor area ratio is 0.002. People ratio is 0.002",
               "Blending space StripMall Strip mall - type 2 B end_b - Story Ground. Floor area ratio is 0.018. People ratio is 0.018",
               "Blending space StripMall Strip mall - type 2 C  - Story Ground. Floor area ratio is 0.019. People ratio is 0.019",
               "Blending space StripMall Strip mall - type 2 A  - Story Ground. Floor area ratio is 0.019. People ratio is 0.019",
               "Story Mid area is 124,803.00 ft^2, number of people is 998.",
               "Story Mid accounts for 2 space types.",
               "Blending space type StripMall Strip mall - type 3 - 90.1-2004 Story Mid. Floor area ratio is 0.5. People ratio is 0.5",
               "Blending space type StripMall Strip mall - type 2 - 90.1-2004 Story Mid. Floor area ratio is 0.5. People ratio is 0.5",
               "Blending space StripMall Strip mall - type 3 A  - Story Mid. Floor area ratio is 0.041. People ratio is 0.041",
               "Blending space StripMall Strip mall - type 3 A end_a - Story Mid. Floor area ratio is 0.002. People ratio is 0.002",
               "Blending space StripMall Strip mall - type 3 C  - Story Mid. Floor area ratio is 0.041. People ratio is 0.041",
               "Blending space StripMall Strip mall - type 3 C end_a - Story Mid. Floor area ratio is 0.002. People ratio is 0.002",
               "Blending space StripMall Strip mall - type 3 B end_a - Story Mid. Floor area ratio is 0.018. People ratio is 0.018",
               "Blending space StripMall Strip mall - type 2 C end_b - Story Mid. Floor area ratio is 0.002. People ratio is 0.002",
               "Blending space StripMall Strip mall - type 2 B end_b - Story Mid. Floor area ratio is 0.018. People ratio is 0.018",
               "Blending space StripMall Strip mall - type 2 A end_b - Story Mid. Floor area ratio is 0.002. People ratio is 0.002",
               "Blending space StripMall Strip mall - type 2 C  - Story Mid. Floor area ratio is 0.041. People ratio is 0.041",
               "Blending space StripMall Strip mall - type 2 A  - Story Mid. Floor area ratio is 0.041. People ratio is 0.041",
               "Story Top area is 124,803.00 ft^2, number of people is 998.",
               "Story Top accounts for 1 space types.",
               "Blending space type StripMall Strip mall - type 3 - 90.1-2004 Story Top. Floor area ratio is 1.0. People ratio is 1.0",
               "Blending space StripMall Strip mall - type 3 B end_b - Story Top. Floor area ratio is 0.018. People ratio is 0.018",
               "Blending space StripMall Strip mall - type 3 C end_b - Story Top. Floor area ratio is 0.002. People ratio is 0.002",
               "Blending space StripMall Strip mall - type 3 C  - Story Top. Floor area ratio is 0.081. People ratio is 0.081",
               "Blending space StripMall Strip mall - type 3 A  - Story Top. Floor area ratio is 0.081. People ratio is 0.081",
               "Blending space StripMall Strip mall - type 3 C end_a - Story Top. Floor area ratio is 0.002. People ratio is 0.002",
               "Blending space StripMall Strip mall - type 3 B end_a - Story Top. Floor area ratio is 0.018. People ratio is 0.018",
               "Blending space StripMall Strip mall - type 3 A end_a - Story Top. Floor area ratio is 0.002. People ratio is 0.002",
               "Blending space StripMall Strip mall - type 3 A end_b - Story Top. Floor area ratio is 0.002. People ratio is 0.002"
            ],
            "step_initial_condition" : "The initial building uses 5 spaces types.",
            "step_result" : "Success",
            "step_values" : [
               {
                  "name" : "blend_method",
                  "value" : "Building Story"
               }
            ],
            "step_warnings" : []
         }
      },
      {
         "arguments" : {
            "feature_id" : "12",
            "geojson_file" : "/Users/tkwasnik/github/urbanopt-example-geojson-reopt-project/example_project.json",
            "surrounding_buildings" : "ShadingOnly"
         },
         "measure_dir_name" : "urban_geometry_creation",
         "result" : {
            "completed_at" : "20191231T200419Z",
            "measure_class_name" : "UrbanGeometryCreation",
            "measure_display_name" : "UrbanGeometryCreation",
            "measure_name" : "urban_geometry_creation",
            "measure_taxonomy" : "Envelope.Form",
            "measure_type" : "ModelMeasure",
            "measure_uid" : "5ab85d6b-c9af-4361-8ab9-613ee99a5666",
            "measure_version_id" : "0808dbbe-ec8a-46c7-b416-cbae39e2b06c",
            "measure_version_modified" : "20190523T021410Z",
            "measure_xml_checksum" : "D254E772",
            "started_at" : "20191231T200417Z",
            "stderr" : "",
            "stdout" : "",
            "step_errors" : [],
            "step_files" : [],
            "step_info" : [
               "Min_lat = 42.8170218879136, min_lon = -78.84915297130291",
               "13 nearby buildings found",
               "Intersecting surfaces",
               "Matching surfaces",
               "Changing adjacent surfaces to adiabatic"
            ],
            "step_result" : "Success",
            "step_values" : [
               {
                  "name" : "geojson_file",
                  "value" : "/Users/tkwasnik/github/urbanopt-example-geojson-reopt-project/example_project.json"
               },
               {
                  "name" : "feature_id",
                  "value" : "12"
               },
[...]
               "For zone Building Story 3 ThermalZone, the internal load 13.22 Btu/hr*ft^2 - average internal load 13.22 Btu/hr*ft^2 = 0.0 Btu/hr*ft^2 < tolerance of 10 Btu/hr*ft^2, stopping elimination process.",
               "Primary system zones = Building Story 3 ThermalZone.",
               "Adding VAV system for 1 zones.",
               "For 1 Zone VAV 2: VAV damper action was set to Single Maximum control.",
               "Set sizing factors to 1.25 for heating and 1.15 for cooling.",
               "Running simulation /Users/tkwasnik/github/urbanopt-example-geojson-reopt-project/run/baseline_scenario/12/006_create_typical_building_from_model/SR1.",
               "Finished run.",
               "Started applying multizone vav OA sizing.",
               "Finished applying multizone vav OA sizing.",
               "Started applying prototype HVAC assumptions.",
               "For Prototype: 1 Zone VAV 1 Fan: 106042cfm; Pressure Rise = 5.58in w.c.",
               "For Prototype: 1 Zone VAV 2 Fan: 150313cfm; Pressure Rise = 5.58in w.c.",
               "For Prototype: 1 Zone VAV Fan: 56128cfm; Pressure Rise = 5.58in w.c.",
               "For 1 Zone VAV 1 Fan: allowed_hp = 157.55HP; motor eff = 95.0%; total fan eff = 62% based on 106042 cfm.",
               "For 1 Zone VAV 2 Fan: allowed_hp = 223.32HP; motor eff = 95.0%; total fan eff = 62% based on 150313 cfm.",
               "For 1 Zone VAV Fan: allowed_hp = 83.39HP; motor eff = 94.5%; total fan eff = 61% based on 56128 cfm.",
               "Finished applying prototype HVAC assumptions.",
               "Started applying HVAC efficiency standards.",
               "For 1 Zone VAV, ERV not required based on 67% OA flow, design supply air flow of 56128cfm, and climate zone .",
               "For 1 Zone VAV Fan: Set fan curve coefficients to reflect control type of 'Single Zone VAV Fan'.",
               "For 1 Zone VAV: Single zone controls not applicable because no DX cooling.",
               "For Building Story 1 ThermalZone: DCV is not required since the occupant density is 8 people/1000 ft2, but the minimum occupant density is 100 people/1000 ft2.",
               "For 1 Zone VAV: Annual occupied hours = 2973 hr/yr, assuming a 0.15 occupancy threshold.  This schedule will be used as the HVAC operation schedule.",
               "For 1 Zone VAV: Motorized OA damper is required because the building has 3 stories, >= the minimum of 3 stories for climate zone , and the system OA intake of 37421 cfm is >= the minimum threshold of 0 cfm.",
               "For 1 Zone VAV: Setting motorized OA damper schedule to 1 Zone VAV Occ Sch.",
               "For Building Story 1 ThermalZone: DCV is not required since the occupant density is 8 people/1000 ft2, but the minimum occupant density is 100 people/1000 ft2.",
               "For 1 Zone VAV: Optimum start is required since design flow rate of 56128 cfm exceeds the limit of 10000 cfm.",
               "For 1 Zone VAV: Optimum start control enabled.",
               "For 1 Zone VAV 1, ERV not required based on 35% OA flow, design supply air flow of 106042cfm, and climate zone .",
               "For 1 Zone VAV 1 Fan: Set fan curve coefficients to reflect control type of 'Single Zone VAV Fan'.",
               "For 1 Zone VAV 1: Single zone controls not applicable because no DX cooling.",
               "For Building Story 2 ThermalZone: DCV is not required since the occupant density is 8 people/1000 ft2, but the minimum occupant density is 100 people/1000 ft2.",
               "For 1 Zone VAV 1: Annual occupied hours = 3025 hr/yr, assuming a 0.15 occupancy threshold.  This schedule will be used as the HVAC operation schedule.",
               "For 1 Zone VAV 1: Motorized OA damper is required because the building has 3 stories, >= the minimum of 3 stories for climate zone , and the system OA intake of 37421 cfm is >= the minimum threshold of 0 cfm.",
               "For 1 Zone VAV 1: Setting motorized OA damper schedule to 1 Zone VAV 1 Occ Sch.",
               "For Building Story 2 ThermalZone: DCV is not required since the occupant density is 8 people/1000 ft2, but the minimum occupant density is 100 people/1000 ft2.",
               "For 1 Zone VAV 1: Optimum start is required since design flow rate of 106042 cfm exceeds the limit of 10000 cfm.",
               "For 1 Zone VAV 1: Optimum start control enabled.",
               "For 1 Zone VAV 2, ERV not required based on 25% OA flow, design supply air flow of 150313cfm, and climate zone .",
               "For 1 Zone VAV 2 Fan: Set fan curve coefficients to reflect control type of 'Single Zone VAV Fan'.",
               "For 1 Zone VAV 2: Single zone controls not applicable because no DX cooling.",
               "For Building Story 3 ThermalZone: DCV is not required since the occupant density is 8 people/1000 ft2, but the minimum occupant density is 100 people/1000 ft2.",
               "For 1 Zone VAV 2: Annual occupied hours = 4015 hr/yr, assuming a 0.15 occupancy threshold.  This schedule will be used as the HVAC operation schedule.",
               "For 1 Zone VAV 2: Motorized OA damper is required because the building has 3 stories, >= the minimum of 3 stories for climate zone , and the system OA intake of 37421 cfm is >= the minimum threshold of 0 cfm.",
               "For 1 Zone VAV 2: Setting motorized OA damper schedule to 1 Zone VAV 2 Occ Sch.",
               "For Building Story 3 ThermalZone: DCV is not required since the occupant density is 8 people/1000 ft2, but the minimum occupant density is 100 people/1000 ft2.",
               "For 1 Zone VAV 2: Optimum start is required since design flow rate of 150313 cfm exceeds the limit of 10000 cfm.",
               "For 1 Zone VAV 2: Optimum start control enabled.",
               "For 1 Zone VAV 1 Fan: motor nameplate = 150HP, motor eff = 95.0%.",
               "For 1 Zone VAV 2 Fan: motor nameplate = 203HP, motor eff = 95.0%.",
               "For 1 Zone VAV Fan: motor nameplate = 100HP, motor eff = 94.5%.",
               "For Chilled Water Loop Primary Pump: brake hp = 11.71HP, motor nameplate = 15.0HP, motor eff = 91.0%.",
               "For Condenser Water Loop Constant Pump: brake hp = 46.53HP, motor nameplate = 50.0HP, motor eff = 93.0%.",
               "For Chilled Water Loop Secondary Pump: brake hp = 35.14HP, motor nameplate = 40.0HP, motor eff = 93.0%.",
               "For Hot Water Loop Pump: brake hp = 22.83HP, motor nameplate = 25.0HP, motor eff = 92.4%.",
               "For StripMall Strip mall - type 1 - 90.1-2004 Service Water Loop Water Mains Pressure Driven: brake hp = 0.0HP, motor nameplate = 1.0HP, motor eff = 82.5%.",
               "For StripMall Strip mall - type 2 - 90.1-2004 Service Water Loop Water Mains Pressure Driven: brake hp = 0.0HP, motor nameplate = 1.0HP, motor eff = 82.5%.",
               "For StripMall Strip mall - type 3 - 90.1-2004 Service Water Loop Water Mains Pressure Driven: brake hp = 0.0HP, motor nameplate = 1.0HP, motor eff = 82.5%.",
               "For 90.1-2004: 90.1-2004 WaterCooled  Rotary Screw Chiller 0 1018tons 0.6kW/ton: WaterCooled  Rotary Screw Capacity = 1018tons; COP = 5.5 (0.6kW/ton)",
               "For 90.1-2004: Boiler: Gas Hot Water Capacity = 11550kBtu/hr; Thermal Efficiency = 0.75",
               "For 90.1-2004: 42X 50gal Electricity Water Heater - 20kBtu/hr 1.0 Therm Eff; thermal efficiency = 1.0, skin-loss UA = 4Btu/hr",
               "For 90.1-2004: 42X 50gal Electricity Water Heater - 20kBtu/hr 1 1.0 Therm Eff; thermal efficiency = 1.0, skin-loss UA = 4Btu/hr",
               "For 90.1-2004: 83X 50gal Electricity Water Heater - 20kBtu/hr 1.0 Therm Eff; thermal efficiency = 1.0, skin-loss UA = 4Btu/hr",
               "For Propeller or Axial TwoSpeed Fan Open Cooling Tower, design water flow = 2888 gpm, minimum performance = 38.2 gpm/hp (nameplate).",
               "For Propeller or Axial TwoSpeed Fan Open Cooling Tower, allowed fan motor nameplate hp = 75.6 hp, fan brake horsepower = 68.0, and fan motor actual power = 72.3 hp (53913 W) at 0.941 motor efficiency.",
               "Finished applying HVAC efficiency standards."
            ],
            "step_initial_condition" : "The building started with 934 objects.",
            "step_result" : "Success",
            "step_values" : [
               {
                  "name" : "template",
                  "value" : "90.1-2004"
               },
               {
                  "name" : "system_type",
                  "value" : "Inferred"
               },
               {
                  "name" : "hvac_delivery_type",
                  "value" : "Forced Air"
               },
               {
                  "name" : "htg_src",
                  "value" : "NaturalGas"
               },
               {
                  "name" : "clg_src",
                  "value" : "Electricity"
               },
               {
                  "name" : "kitchen_makeup",
                  "value" : "Adjacent"
               },
               {
                  "name" : "exterior_lighting_zone",
                  "value" : "3 - All Other Areas"
               },
               {
                  "name" : "add_constructions",
                  "value" : false
               },
               {
                  "name" : "add_space_type_loads",
                  "value" : false
               },
               {
                  "name" : "add_elevators",
                  "value" : false
               },
               {
                  "name" : "add_exterior_lights",
                  "value" : false
               },
               {
                  "name" : "onsite_parking_fraction",
                  "value" : 1
               },
               {
                  "name" : "add_exhaust",
                  "value" : false
               },
               {
                  "name" : "add_swh",
                  "value" : false
               },
               {
                  "name" : "add_thermostat",
                  "value" : true
               },
               {
                  "name" : "add_hvac",
                  "value" : true
               },
               {
                  "name" : "remove_objects",
                  "value" : false
               },
               {
                  "name" : "use_upstream_args",
                  "value" : false
               },
               {
                  "name" : "enable_dst",
                  "value" : true
               }
            ],
            "step_warnings" : [
               "[openstudio.standards.Fan] For 1 Zone VAV 2 Fan, there is no greater nominal HP.  Use the efficiency of the largest motor category.",
               "[openstudio.standards.AirLoopHVAC] Cannot find economizer limits for 90.1-2004, , assuming no economizer required.",
               "[openstudio.standards.AirLoopHVAC] Cannot find economizer limits for 90.1-2004, , assuming no economizer required.",
               "[openstudio.standards.AirLoopHVAC] Cannot find economizer limits for 90.1-2004, , assuming no economizer required.",
               "[openstudio.standards.Fan] For 1 Zone VAV 2 Fan, there is no greater nominal HP.  Use the efficiency of the largest motor category."
            ]
         }
      },
      {
         "arguments" : {
            "__SKIP__" : true,
            "r_value" : 10
         },
         "measure_dir_name" : "IncreaseInsulationRValueForExteriorWalls",
         "result" : {
            "completed_at" : "20191231T200447Z",
            "measure_class_name" : "IncreaseInsulationRValueForExteriorWalls",
            "measure_display_name" : "Increase R-value of Insulation for Exterior Walls to a Specific Value",
            "measure_name" : "increase_insulation_r_value_for_exterior_walls",
            "measure_taxonomy" : "Envelope.Opaque",
            "measure_type" : "ModelMeasure",
            "measure_uid" : "3fdf9c39-d305-449b-a4b5-077166af5a67",
            "measure_version_id" : "185d23d1-67c9-435c-97d2-f28e7f80632b",
            "measure_version_modified" : "20191029T231254Z",
            "measure_xml_checksum" : "0F858D9E",
            "started_at" : "20191231T200447Z",
            "stderr" : "",
            "stdout" : "",
            "step_errors" : [],
            "step_files" : [],
            "step_info" : [],
            "step_result" : "Skip",
            "step_values" : [],
            "step_warnings" : []
         }
      },
      {
         "arguments" : {
            "__SKIP__" : true,
            "elecequip_power_reduction_percent" : 20
         },
         "measure_dir_name" : "ReduceElectricEquipmentLoadsByPercentage",
         "result" : {
            "completed_at" : "20191231T200447Z",
            "measure_class_name" : "ReduceElectricEquipmentLoadsByPercentage",
            "measure_display_name" : "Reduce Electric Equipment Loads by Percentage",
            "measure_name" : "reduce_electric_equipment_loads_by_percentage",
            "measure_taxonomy" : "Equipment.Electric Equipment",
            "measure_type" : "ModelMeasure",
            "measure_uid" : "0902e302-70db-4339-99b0-17f08bc93629",
            "measure_version_id" : "7be9778a-f317-46fb-b48a-4159ce1ec158",
            "measure_version_modified" : "20191029T231304Z",
            "measure_xml_checksum" : "F9A5B8F0",
            "started_at" : "20191231T200447Z",
            "stderr" : "",
            "stdout" : "",
            "step_errors" : [],
            "step_files" : [],
            "step_info" : [],
            "step_result" : "Skip",
            "step_values" : [],
            "step_warnings" : []
         }
      },
      {
         "arguments" : {
            "__SKIP__" : true,
            "lighting_power_reduction_percent" : 30
         },
         "measure_dir_name" : "ReduceLightingLoadsByPercentage",
         "result" : {
            "completed_at" : "20191231T200447Z",
            "measure_class_name" : "ReduceLightingLoadsByPercentage",
            "measure_display_name" : "Reduce Lighting Loads by Percentage",
            "measure_name" : "reduce_lighting_loads_by_percentage",
            "measure_taxonomy" : "Electric Lighting.Lighting Equipment",
            "measure_type" : "ModelMeasure",
            "measure_uid" : "791f3404-a28b-4a80-ba3f-e15b339e39ea",
            "measure_version_id" : "1da578d2-2b29-4536-9382-08364c5d5219",
            "measure_version_modified" : "20191029T231304Z",
            "measure_xml_checksum" : "293730A7",
            "started_at" : "20191231T200447Z",
            "stderr" : "",
            "stdout" : "",
            "step_errors" : [],
            "step_files" : [],
            "step_info" : [],
            "step_result" : "Skip",
            "step_values" : [],
            "step_warnings" : []
         }
      },
      {
         "arguments" : {
            "feature_id" : "12",
            "feature_name" : "Mall 1",
            "feature_type" : "Building"
         },
         "measure_dir_name" : "default_feature_reports",
         "result" : {
            "completed_at" : "20191231T200908Z",
            "measure_class_name" : "DefaultFeatureReports",
            "measure_display_name" : "DefaultFeatureReports",
            "measure_name" : "default_feature_reports",
            "measure_taxonomy" : "Reporting.QAQC",
            "measure_type" : "ReportingMeasure",
            "measure_uid" : "9ee3135a-8070-4408-bfa1-b75fecf9dd4f",
            "measure_version_id" : "803f9d76-a088-489d-88d3-6f3a5ae50d8a",
            "measure_version_modified" : "20191030T020950Z",
            "measure_xml_checksum" : "FB304155",
            "started_at" : "20191231T200831Z",
            "stderr" : "",
            "stdout" : "",
            "step_errors" : [],
            "step_files" : [
               "/Users/tkwasnik/github/urbanopt-example-geojson-reopt-project/run/baseline_scenario/12/010_default_feature_reports/default_feature_reports.json",
               "/Users/tkwasnik/github/urbanopt-example-geojson-reopt-project/run/baseline_scenario/12/010_default_feature_reports/default_feature_reports.csv"
            ],
            "step_final_condition" : "Default Feature Reports generated successfully.",
            "step_info" : [
               "TIMESERIES: Electricity:Facility",
               "KEY VALUES: [\"\"]",
               "!! TIMESERIES NAME: Electricity:Facility AND key_value: ",
               "First timeseries",
               "TIMESERIES: ElectricityProduced:Facility",
               "KEY VALUES: []",
               "!! TIMESERIES NAME: ElectricityProduced:Facility AND key_value: ",
               "Is NOT Initialized",
               "TIMESERIES: Gas:Facility",
               "KEY VALUES: [\"\"]",
               "!! TIMESERIES NAME: Gas:Facility AND key_value: ",
               "Is Initialized",
               "TIMESERIES: DistrictCooling:Facility",
               "KEY VALUES: []",
               "!! TIMESERIES NAME: DistrictCooling:Facility AND key_value: ",
               "Is NOT Initialized",
               "TIMESERIES: DistrictHeating:Facility",
               "KEY VALUES: []",
               "!! TIMESERIES NAME: DistrictHeating:Facility AND key_value: ",
               "Is NOT Initialized",
               "TIMESERIES: District Cooling Chilled Water Rate",
               "KEY VALUES: []",
               "!! TIMESERIES NAME: District Cooling Chilled Water Rate AND key_value: ",
               "Is NOT Initialized",
               "TIMESERIES: District Cooling Mass Flow Rate",
               "KEY VALUES: []",
               "!! TIMESERIES NAME: District Cooling Mass Flow Rate AND key_value: ",
               "Is NOT Initialized",
               "TIMESERIES: District Cooling Inlet Temperature",
               "KEY VALUES: []",
               "!! TIMESERIES NAME: District Cooling Inlet Temperature AND key_value: ",
               "Is NOT Initialized",
               "TIMESERIES: District Cooling Outlet Temperature",
               "KEY VALUES: []",
               "!! TIMESERIES NAME: District Cooling Outlet Temperature AND key_value: ",
               "Is NOT Initialized",
               "TIMESERIES: District Heating Hot Water Rate",
               "KEY VALUES: []",
               "!! TIMESERIES NAME: District Heating Hot Water Rate AND key_value: ",
               "Is NOT Initialized",
               "TIMESERIES: District Heating Mass Flow Rate",
               "KEY VALUES: []",
               "!! TIMESERIES NAME: District Heating Mass Flow Rate AND key_value: ",
               "Is NOT Initialized",
               "TIMESERIES: District Heating Inlet Temperature",
               "KEY VALUES: []",
               "!! TIMESERIES NAME: District Heating Inlet Temperature AND key_value: ",
               "Is NOT Initialized",
               "TIMESERIES: District Heating Outlet Temperature",
               "KEY VALUES: []",
               "!! TIMESERIES NAME: District Heating Outlet Temperature AND key_value: ",
               "Is NOT Initialized",
               "new final_timeseries_names size: 13"
            ],
            "step_result" : "Success",
            "step_values" : [
               {
                  "name" : "feature_id",
                  "value" : "12"
               },
               {
                  "name" : "feature_name",
                  "value" : "Mall 1"
               },
               {
                  "name" : "feature_type",
                  "value" : "Building"
               },
               {
                  "name" : "reporting_frequency",
                  "value" : "Hourly"
               }
            ],
            "step_warnings" : []
         }
      }
   ],
   "updated_at" : "20191231T200911Z",
   "weather_file" : null
}
