{
   "completed_at" : "20191231T200053Z",
   "completed_status" : "Success",
   "current_step" : 11,
   "description" : "Hospital 1",
   "eplusout_err" : "Program Version,EnergyPlus, Version 9.1.0-08d2e308bb, YMD=2019.12.31 12:56,\n   ** Warning ** Timestep: Requested number (1) is less than the suggested minimum of 4.\n   **   ~~~   ** Please see entry for Timestep in Input/Output Reference for discussion of considerations.\n   ************* Beginning Zone Sizing Calculations\n   ** Warning ** ProcessScheduleInput: Schedule:Day:Interval=\"177 SPACE(S) OCC SCH DEFAULT\", Blank Schedule Type Limits Name input -- will not be validated.\n   ** Warning ** ProcessScheduleInput: Schedule:Day:Interval=\"177 SPACE(S) OCC SCH SATURDAY\", Blank Schedule Type Limits Name input -- will not be validated.\n   ** Warning ** ProcessScheduleInput: Schedule:Day:Interval=\"177 SPACE(S) OCC SCH SUMMER DESIGN DAY\", Blank Schedule Type Limits Name input -- will not be validated.\n   ** Warning ** ProcessScheduleInput: Schedule:Day:Interval=\"177 SPACE(S) OCC SCH SUNDAY\", Blank Schedule Type Limits Name input -- will not be validated.\n   ** Warning ** ProcessScheduleInput: Schedule:Day:Interval=\"177 SPACE(S) OCC SCH WINTER DESIGN DAY\", Blank Schedule Type Limits Name input -- will not be validated.\n   ** Warning ** ProcessScheduleInput: Schedule:Day:Interval=\"ECONOMIZER MAX OA FRACTION 70 PCT DEFAULT\", Blank Schedule Type Limits Name input -- will not be validated.\n   ** Warning ** ProcessScheduleInput: Schedule:Day:Interval=\"SCHEDULE DAY 1\", Blank Schedule Type Limits Name input -- will not be validated.\n   ** Warning ** ProcessScheduleInput: Schedule:Day:Interval=\"SCHEDULE DAY 10\", Blank Schedule Type Limits Name input -- will not be validated.\n   ** Warning ** ProcessScheduleInput: Schedule:Day:Interval=\"SCHEDULE DAY 11\", Blank Schedule Type Limits Name input -- will not be validated.\n   ** Warning ** ProcessScheduleInput: Schedule:Day:Interval=\"SCHEDULE DAY 12\", Blank Schedule Type Limits Name input -- will not be validated.\n   ** Warning ** ProcessScheduleInput: Schedule:Day:Interval=\"SCHEDULE DAY 13\", Blank Schedule Type Limits Name input -- will not be validated.\n   ** Warning ** ProcessScheduleInput: Schedule:Day:Interval=\"SCHEDULE DAY 14\", Blank Schedule Type Limits Name input -- will not be validated.\n   ** Warning ** ProcessScheduleInput: Schedule:Day:Interval=\"SCHEDULE DAY 15\", Blank Schedule Type Limits Name input -- will not be validated.\n   ** Warning ** ProcessScheduleInput: Schedule:Day:Interval=\"SCHEDULE DAY 16\", Blank Schedule Type Limits Name input -- will not be validated.\n   ** Warning ** ProcessScheduleInput: Schedule:Day:Interval=\"SCHEDULE DAY 17\", Blank Schedule Type Limits Name input -- will not be validated.\n   ** Warning ** ProcessScheduleInput: Schedule:Day:Interval=\"SCHEDULE DAY 18\", Blank Schedule Type Limits Name input -- will not be validated.\n   ** Warning ** ProcessScheduleInput: Schedule:Day:Interval=\"SCHEDULE DAY 19\", Blank Schedule Type Limits Name input -- will not be validated.\n   ** Warning ** ProcessScheduleInput: Schedule:Day:Interval=\"SCHEDULE DAY 2\", Blank Schedule Type Limits Name input -- will not be validated.\n   ** Warning ** ProcessScheduleInput: Schedule:Day:Interval=\"SCHEDULE DAY 20\", Blank Schedule Type Limits Name input -- will not be validated.\n   ** Warning ** ProcessScheduleInput: Schedule:Day:Interval=\"SCHEDULE DAY 3\", Blank Schedule Type Limits Name input -- will not be validated.\n   ** Warning ** ProcessScheduleInput: Schedule:Day:Interval=\"SCHEDULE DAY 4\", Blank Schedule Type Limits Name input -- will not be validated.\n   ** Warning ** ProcessScheduleInput: Schedule:Day:Interval=\"SCHEDULE DAY 5\", Blank Schedule Type Limits Name input -- will not be validated.\n   ** Warning ** ProcessScheduleInput: Schedule:Day:Interval=\"SCHEDULE DAY 6\", Blank Schedule Type Limits Name input -- will not be validated.\n   ** Warning ** ProcessScheduleInput: Schedule:Day:Interval=\"SCHEDULE DAY 7\", Blank Schedule Type Limits Name input -- will not be validated.\n   ** Warning ** ProcessScheduleInput: Schedule:Day:Interval=\"SCHEDULE DAY 8\", Blank Schedule Type Limits Name input -- will not be validated.\n   ** Warning ** ProcessScheduleInput: Schedule:Day:Interval=\"SCHEDULE DAY 9\", Blank Schedule Type Limits Name input -- will not be validated.\n   ** Warning ** ProcessScheduleInput: Schedule:Year=\"ECONOMIZER MAX OA FRACTION 70 PCT\", Blank Schedule Type Limits Name input -- will not be validated.\n   ** Warning ** ProcessScheduleInput: Schedule:Year=\"ELEVATOR SCHEDULE\", Blank Schedule Type Limits Name input -- will not be validated.\n   ** Warning ** ProcessScheduleInput: Schedule:Constant=\"ALWAYS OFF DISCRETE\", Blank Schedule Type Limits Name input -- will not be validated.\n   ** Warning ** ProcessScheduleInput: Schedule:Constant=\"ALWAYS ON CONTINUOUS\", Blank Schedule Type Limits Name input -- will not be validated.\n   ** Warning ** CheckUsedConstructions: There are 9 nominally unused constructions in input.\n   **   ~~~   ** For explicit details on each unused construction, use Output:Diagnostics,DisplayExtraWarnings;\n   ** Warning ** DetermineShadowingCombinations: There are 4 surfaces which are receiving surfaces and are non-convex.\n   **   ~~~   ** ...Shadowing values may be inaccurate. Check .shd report file for more surface shading details\n   **   ~~~   ** ...Add Output:Diagnostics,DisplayExtraWarnings; to see individual warnings for each surface.\n   ** Warning ** DeterminePolygonOverlap: Too many figures [>15000]  detected in an overlap calculation. Use Output:Diagnostics,DisplayExtraWarnings; for more details.\n   ** Warning ** Calculated design heating load for zone=BUILDING STORY 7 THERMALZONE is zero.\n   **   ~~~   ** Check Sizing:Zone and ZoneControl:Thermostat inputs.\n   ************* Beginning System Sizing Calculations\n   ** Warning ** Since Zone Minimum Air Flow Input Method = CONSTANT, input for Fixed Minimum Air Flow Rate will be ignored.\n   **   ~~~   ** Occurs in AirTerminal:SingleDuct:VAV:Reheat = BUILDING STORY 1 THERMALZONE VAV TERMINAL\n   ** Warning ** Since Damper Heating Action = NORMAL, input for Maximum Flow Fraction During Reheat will be ignored.\n   **   ~~~   ** Occurs in AirTerminal:SingleDuct:VAV:Reheat = BUILDING STORY 1 THERMALZONE VAV TERMINAL\n   ** Warning ** Since Zone Minimum Air Flow Input Method = CONSTANT, input for Fixed Minimum Air Flow Rate will be ignored.\n   **   ~~~   ** Occurs in AirTerminal:SingleDuct:VAV:Reheat = BUILDING STORY 10 THERMALZONE VAV TERMINAL\n   ** Warning ** Since Damper Heating Action = NORMAL, input for Maximum Flow Fraction During Reheat will be ignored.\n   **   ~~~   ** Occurs in AirTerminal:SingleDuct:VAV:Reheat = BUILDING STORY 10 THERMALZONE VAV TERMINAL\n   ** Warning ** Since Zone Minimum Air Flow Input Method = CONSTANT, input for Fixed Minimum Air Flow Rate will be ignored.\n   **   ~~~   ** Occurs in AirTerminal:SingleDuct:VAV:Reheat = BUILDING STORY 2 THERMALZONE VAV TERMINAL\n   ** Warning ** Since Damper Heating Action = NORMAL, input for Maximum Flow Fraction During Reheat will be ignored.\n   **   ~~~   ** Occurs in AirTerminal:SingleDuct:VAV:Reheat = BUILDING STORY 2 THERMALZONE VAV TERMINAL\n   ** Warning ** Since Zone Minimum Air Flow Input Method = CONSTANT, input for Fixed Minimum Air Flow Rate will be ignored.\n   **   ~~~   ** Occurs in AirTerminal:SingleDuct:VAV:Reheat = BUILDING STORY 3 THERMALZONE VAV TERMINAL\n   ** Warning ** Since Damper Heating Action = NORMAL, input for Maximum Flow Fraction During Reheat will be ignored.\n   **   ~~~   ** Occurs in AirTerminal:SingleDuct:VAV:Reheat = BUILDING STORY 3 THERMALZONE VAV TERMINAL\n   ** Warning ** Since Zone Minimum Air Flow Input Method = CONSTANT, input for Fixed Minimum Air Flow Rate will be ignored.\n   **   ~~~   ** Occurs in AirTerminal:SingleDuct:VAV:Reheat = BUILDING STORY 4 THERMALZONE VAV TERMINAL\n   ** Warning ** Since Damper Heating Action = NORMAL, input for Maximum Flow Fraction During Reheat will be ignored.\n   **   ~~~   ** Occurs in AirTerminal:SingleDuct:VAV:Reheat = BUILDING STORY 4 THERMALZONE VAV TERMINAL\n   ** Warning ** Since Zone Minimum Air Flow Input Method = CONSTANT, input for Fixed Minimum Air Flow Rate will be ignored.\n   **   ~~~   ** Occurs in AirTerminal:SingleDuct:VAV:Reheat = BUILDING STORY 5 THERMALZONE VAV TERMINAL\n   ** Warning ** Since Damper Heating Action = NORMAL, input for Maximum Flow Fraction During Reheat will be ignored.\n   **   ~~~   ** Occurs in AirTerminal:SingleDuct:VAV:Reheat = BUILDING STORY 5 THERMALZONE VAV TERMINAL\n   ** Warning ** Since Zone Minimum Air Flow Input Method = CONSTANT, input for Fixed Minimum Air Flow Rate will be ignored.\n   **   ~~~   ** Occurs in AirTerminal:SingleDuct:VAV:Reheat = BUILDING STORY 6 THERMALZONE VAV TERMINAL\n   ** Warning ** Since Damper Heating Action = NORMAL, input for Maximum Flow Fraction During Reheat will be ignored.\n   **   ~~~   ** Occurs in AirTerminal:SingleDuct:VAV:Reheat = BUILDING STORY 6 THERMALZONE VAV TERMINAL\n   ** Warning ** Since Zone Minimum Air Flow Input Method = CONSTANT, input for Fixed Minimum Air Flow Rate will be ignored.\n   **   ~~~   ** Occurs in AirTerminal:SingleDuct:VAV:Reheat = BUILDING STORY 7 THERMALZONE VAV TERMINAL\n   ** Warning ** Since Damper Heating Action = NORMAL, input for Maximum Flow Fraction During Reheat will be ignored.\n   **   ~~~   ** Occurs in AirTerminal:SingleDuct:VAV:Reheat = BUILDING STORY 7 THERMALZONE VAV TERMINAL\n   ** Warning ** Since Zone Minimum Air Flow Input Method = CONSTANT, input for Fixed Minimum Air Flow Rate will be ignored.\n   **   ~~~   ** Occurs in AirTerminal:SingleDuct:VAV:Reheat = BUILDING STORY 8 THERMALZONE VAV TERMINAL\n   ** Warning ** Since Damper Heating Action = NORMAL, input for Maximum Flow Fraction During Reheat will be ignored.\n   **   ~~~   ** Occurs in AirTerminal:SingleDuct:VAV:Reheat = BUILDING STORY 8 THERMALZONE VAV TERMINAL\n   ** Warning ** Since Zone Minimum Air Flow Input Method = CONSTANT, input for Fixed Minimum Air Flow Rate will be ignored.\n   **   ~~~   ** Occurs in AirTerminal:SingleDuct:VAV:Reheat = BUILDING STORY 9 THERMALZONE VAV TERMINAL\n   ** Warning ** Since Damper Heating Action = NORMAL, input for Maximum Flow Fraction During Reheat will be ignored.\n   **   ~~~   ** Occurs in AirTerminal:SingleDuct:VAV:Reheat = BUILDING STORY 9 THERMALZONE VAV TERMINAL\n   ************* Beginning Plant Sizing Calculations\n   ** Warning ** In calculating the design coil UA for Coil:Cooling:Water 1 ZONE VAV CLG COIL\n   **   ~~~   ** the coil bypass factor is unrealistically large;\n   **   ~~~   ** The initial design conditions are: Tair,in = 23.4558\n   **   ~~~   **                                    Wair,in = 9.347243E-003\n   **   ~~~   **                                    Twater,in = 6.6667\n   **   ~~~   **                                    Tair,out = 10.5599\n   **   ~~~   **                                    Wair,out = 8.500000E-003\n   ** Severe  ** InitFans: Fan=[Fan:ZoneExhaust,ZONE OUTPATIENT ANESTHESIA A  - STORY GROUND EXHAUST FAN] is not on any ZoneHVAC:EquipmentList.  It will not be simulated.\n   ** Severe  ** InitFans: Fan=[Fan:ZoneExhaust,ZONE OUTPATIENT ANESTHESIA B  - STORY GROUND EXHAUST FAN] is not on any ZoneHVAC:EquipmentList.  It will not be simulated.\n   ** Severe  ** InitFans: Fan=[Fan:ZoneExhaust,ZONE OUTPATIENT ANESTHESIA C  - STORY GROUND EXHAUST FAN] is not on any ZoneHVAC:EquipmentList.  It will not be simulated.\n   ** Severe  ** InitFans: Fan=[Fan:ZoneExhaust,ZONE OUTPATIENT MRI A  - STORY GROUND EXHAUST FAN] is not on any ZoneHVAC:EquipmentList.  It will not be simulated.\n   ** Severe  ** InitFans: Fan=[Fan:ZoneExhaust,ZONE OUTPATIENT MRI B  - STORY GROUND EXHAUST FAN] is not on any ZoneHVAC:EquipmentList.  It will not be simulated.\n   ** Severe  ** InitFans: Fan=[Fan:ZoneExhaust,ZONE OUTPATIENT MRI C  - STORY GROUND EXHAUST FAN] is not on any ZoneHVAC:EquipmentList.  It will not be simulated.\n   ** Severe  ** InitFans: Fan=[Fan:ZoneExhaust,ZONE OUTPATIENT MRI_CONTROL A  - STORY GROUND EXHAUST FAN] is not on any ZoneHVAC:EquipmentList.  It will not be simulated.\n   ** Severe  ** InitFans: Fan=[Fan:ZoneExhaust,ZONE OUTPATIENT MRI_CONTROL B  - STORY GROUND EXHAUST FAN] is not on any ZoneHVAC:EquipmentList.  It will not be simulated.\n   ** Severe  ** InitFans: Fan=[Fan:ZoneExhaust,ZONE OUTPATIENT MRI_CONTROL C  - STORY GROUND EXHAUST FAN] is not on any ZoneHVAC:EquipmentList.  It will not be simulated.\n   ** Severe  ** InitFans: Fan=[Fan:ZoneExhaust,ZONE OUTPATIENT SOIL WORK A  - STORY GROUND EXHAUST FAN] is not on any ZoneHVAC:EquipmentList.  It will not be simulated.\n   ** Severe  ** InitFans: Fan=[Fan:ZoneExhaust,ZONE OUTPATIENT SOIL WORK B  - STORY GROUND EXHAUST FAN] is not on any ZoneHVAC:EquipmentList.  It will not be simulated.\n   ** Severe  ** InitFans: Fan=[Fan:ZoneExhaust,ZONE OUTPATIENT SOIL WORK C  - STORY GROUND EXHAUST FAN] is not on any ZoneHVAC:EquipmentList.  It will not be simulated.\n   ** Severe  ** InitFans: Fan=[Fan:ZoneExhaust,ZONE OUTPATIENT TOILET A  - STORY MID EXHAUST FAN] is not on any ZoneHVAC:EquipmentList.  It will not be simulated.\n   ** Severe  ** InitFans: Fan=[Fan:ZoneExhaust,ZONE OUTPATIENT TOILET A END_A - STORY MID EXHAUST FAN] is not on any ZoneHVAC:EquipmentList.  It will not be simulated.\n   ** Severe  ** InitFans: Fan=[Fan:ZoneExhaust,ZONE OUTPATIENT TOILET B  - STORY MID EXHAUST FAN] is not on any ZoneHVAC:EquipmentList.  It will not be simulated.\n   ** Severe  ** InitFans: Fan=[Fan:ZoneExhaust,ZONE OUTPATIENT TOILET B END_A - STORY MID EXHAUST FAN] is not on any ZoneHVAC:EquipmentList.  It will not be simulated.\n   ** Severe  ** InitFans: Fan=[Fan:ZoneExhaust,ZONE OUTPATIENT TOILET C  - STORY MID EXHAUST FAN] is not on any ZoneHVAC:EquipmentList.  It will not be simulated.\n   ** Severe  ** InitFans: Fan=[Fan:ZoneExhaust,ZONE OUTPATIENT TOILET C END_A - STORY MID EXHAUST FAN] is not on any ZoneHVAC:EquipmentList.  It will not be simulated.\n   ** Warning ** In calculating the design coil UA for Coil:Cooling:Water 1 ZONE VAV 1 CLG COIL\n   **   ~~~   ** the coil bypass factor is unrealistically large;\n   **   ~~~   ** The initial design conditions are: Tair,in = 24.7340\n   **   ~~~   **                                    Wair,in = 1.065181E-002\n   **   ~~~   **                                    Twater,in = 6.6667\n   **   ~~~   **                                    Tair,out = 10.5652\n   **   ~~~   **                                    Wair,out = 8.500000E-003\n   ** Warning ** In calculating the design coil UA for Coil:Cooling:Water 1 ZONE VAV 2 CLG COIL\n   **   ~~~   ** the coil bypass factor is unrealistically large;\n   **   ~~~   ** The initial design conditions are: Tair,in = 23.3418\n   **   ~~~   **                                    Wair,in = 9.495022E-003\n   **   ~~~   **                                    Twater,in = 6.6667\n   **   ~~~   **                                    Tair,out = 10.5605\n   **   ~~~   **                                    Wair,out = 8.500000E-003\n   ** Warning ** In calculating the design coil UA for Coil:Cooling:Water 1 ZONE VAV 3 CLG COIL\n   **   ~~~   ** the coil bypass factor is unrealistically large;\n   **   ~~~   ** The initial design conditions are: Tair,in = 24.4697\n   **   ~~~   **                                    Wair,in = 1.036100E-002\n   **   ~~~   **                                    Twater,in = 6.6667\n   **   ~~~   **                                    Tair,out = 10.5640\n   **   ~~~   **                                    Wair,out = 8.500000E-003\n   ** Warning ** In calculating the design coil UA for Coil:Cooling:Water 1 ZONE VAV 4 CLG COIL\n   **   ~~~   ** the coil bypass factor is unrealistically large;\n   **   ~~~   ** The initial design conditions are: Tair,in = 25.0332\n   **   ~~~   **                                    Wair,in = 1.053441E-002\n   **   ~~~   **                                    Twater,in = 6.6667\n   **   ~~~   **                                    Tair,out = 10.5647\n   **   ~~~   **                                    Wair,out = 8.500000E-003\n   ** Warning ** In calculating the design coil UA for Coil:Cooling:Water 1 ZONE VAV 5 CLG COIL\n   **   ~~~   ** the coil bypass factor is unrealistically large;\n   **   ~~~   ** The initial design conditions are: Tair,in = 25.6781\n   **   ~~~   **                                    Wair,in = 1.097451E-002\n   **   ~~~   **                                    Twater,in = 6.6667\n   **   ~~~   **                                    Tair,out = 10.5665\n   **   ~~~   **                                    Wair,out = 8.500000E-003\n   ** Warning ** In calculating the design coil UA for Coil:Cooling:Water 1 ZONE VAV 6 CLG COIL\n   **   ~~~   ** the coil bypass factor is unrealistically large;\n   **   ~~~   ** The initial design conditions are: Tair,in = 22.9455\n   **   ~~~   **                                    Wair,in = 9.251499E-003\n   **   ~~~   **                                    Twater,in = 6.6667\n   **   ~~~   **                                    Tair,out = 10.5595\n   **   ~~~   **                                    Wair,out = 8.500000E-003\n   ** Warning ** In calculating the design coil UA for Coil:Cooling:Water 1 ZONE VAV 7 CLG COIL\n   **   ~~~   ** the coil bypass factor is unrealistically large;\n   **   ~~~   ** The initial design conditions are: Tair,in = 24.6883\n   **   ~~~   **                                    Wair,in = 1.027951E-002\n   **   ~~~   **                                    Twater,in = 6.6667\n   **   ~~~   **                                    Tair,out = 10.5637\n   **   ~~~   **                                    Wair,out = 8.500000E-003\n   ** Warning ** In calculating the design coil UA for Coil:Cooling:Water 1 ZONE VAV 8 CLG COIL\n   **   ~~~   ** the coil bypass factor is unrealistically large;\n   **   ~~~   ** The initial design conditions are: Tair,in = 23.9012\n   **   ~~~   **                                    Wair,in = 9.924554E-003\n   **   ~~~   **                                    Twater,in = 6.6667\n   **   ~~~   **                                    Tair,out = 10.5622\n   **   ~~~   **                                    Wair,out = 8.500000E-003\n   ** Warning ** In calculating the design coil UA for Coil:Cooling:Water 1 ZONE VAV 9 CLG COIL\n   **   ~~~   ** the coil bypass factor is unrealistically large;\n   **   ~~~   ** The initial design conditions are: Tair,in = 23.3086\n   **   ~~~   **                                    Wair,in = 9.553830E-003\n   **   ~~~   **                                    Twater,in = 6.6667\n   **   ~~~   **                                    Tair,out = 10.5608\n   **   ~~~   **                                    Wair,out = 8.500000E-003\n   ** Warning ** GetElectricEIRChillerInput: Chiller:Electric:EIR=\"90.1-2004 WATERCOOLED  ROTARY SCREW CHILLER 0 1073TONS 0.6KW/TON\"\n   **   ~~~   ** Energy input ratio as a function of temperature curve output is not equal to 1.0 (+ or - 10%) at reference conditions.\n   **   ~~~   ** Curve output at reference conditions = 1.205\n   ** Warning ** Missing temperature setpoint for LeavingSetpointModulated mode Boiler named BOILER 10058KBTU/HR 0.75 THERMAL EFF\n   **   ~~~   **   A temperature setpoint is needed at the outlet node of a boiler in variable flow mode\n   **   ~~~   **   use a Setpoint Manager to establish a setpoint at the boiler outlet node \n   **   ~~~   **   or use an EMS actuator to establish a setpoint at the boiler outlet node \n   **   ~~~   **   The overall loop setpoint will be assumed for Boiler. The simulation continues ... \n   ** Warning ** Output:Meter: invalid Key Name=\"HEATING:ADDITIONALFUEL\" - not found.\n   ** Warning ** Output:Meter: invalid Key Name=\"HEATING:DISTRICTCOOLING\" - not found.\n   ** Warning ** Output:Meter: invalid Key Name=\"HEATING:DISTRICTHEATING\" - not found.\n   ** Warning ** Output:Meter: invalid Key Name=\"HEATING:WATER\" - not found.\n   ** Warning ** Output:Meter: invalid Key Name=\"COOLING:GAS\" - not found.\n   ** Warning ** Output:Meter: invalid Key Name=\"COOLING:ADDITIONALFUEL\" - not found.\n   ** Warning ** Output:Meter: invalid Key Name=\"COOLING:DISTRICTCOOLING\" - not found.\n   ** Warning ** Output:Meter: invalid Key Name=\"COOLING:DISTRICTHEATING\" - not found.\n   ** Warning ** Output:Meter: invalid Key Name=\"COOLING:WATER\" - not found.\n   ** Warning ** Output:Meter: invalid Key Name=\"INTERIORLIGHTS:GAS\" - not found.\n   ** Warning ** Output:Meter: invalid Key Name=\"INTERIORLIGHTS:ADDITIONALFUEL\" - not found.\n   ** Warning ** Output:Meter: invalid Key Name=\"INTERIORLIGHTS:DISTRICTCOOLING\" - not found.\n   ** Warning ** Output:Meter: invalid Key Name=\"INTERIORLIGHTS:DISTRICTHEATING\" - not found.\n   ** Warning ** Output:Meter: invalid Key Name=\"INTERIORLIGHTS:WATER\" - not found.\n   ** Warning ** Output:Meter: invalid Key Name=\"EXTERIORLIGHTS:GAS\" - not found.\n   ** Warning ** Output:Meter: invalid Key Name=\"EXTERIORLIGHTS:ADDITIONALFUEL\" - not found.\n   ** Warning ** Output:Meter: invalid Key Name=\"EXTERIORLIGHTS:DISTRICTCOOLING\" - not found.\n   ** Warning ** Output:Meter: invalid Key Name=\"EXTERIORLIGHTS:DISTRICTHEATING\" - not found.\n   ** Warning ** Output:Meter: invalid Key Name=\"EXTERIORLIGHTS:WATER\" - not found.\n   ** Warning ** Output:Meter: invalid Key Name=\"INTERIOREQUIPMENT:ADDITIONALFUEL\" - not found.\n   ** Warning ** Output:Meter: invalid Key Name=\"INTERIOREQUIPMENT:DISTRICTCOOLING\" - not found.\n   ** Warning ** Output:Meter: invalid Key Name=\"INTERIOREQUIPMENT:DISTRICTHEATING\" - not found.\n   ** Warning ** Output:Meter: invalid Key Name=\"INTERIOREQUIPMENT:WATER\" - not found.\n   ** Warning ** Output:Meter: invalid Key Name=\"EXTERIOREQUIPMENT:ELECTRICITY\" - not found.\n   ** Warning ** Output:Meter: invalid Key Name=\"EXTERIOREQUIPMENT:GAS\" - not found.\n   ** Warning ** Output:Meter: invalid Key Name=\"EXTERIOREQUIPMENT:ADDITIONALFUEL\" - not found.\n   ** Warning ** Output:Meter: invalid Key Name=\"EXTERIOREQUIPMENT:DISTRICTCOOLING\" - not found.\n   ** Warning ** Output:Meter: invalid Key Name=\"EXTERIOREQUIPMENT:DISTRICTHEATING\" - not found.\n   ** Warning ** Output:Meter: invalid Key Name=\"EXTERIOREQUIPMENT:WATER\" - not found.\n   ** Warning ** Output:Meter: invalid Key Name=\"FANS:GAS\" - not found.\n   ** Warning ** Output:Meter: invalid Key Name=\"FANS:ADDITIONALFUEL\" - not found.\n   ** Warning ** Output:Meter: invalid Key Name=\"FANS:DISTRICTCOOLING\" - not found.\n   ** Warning ** Output:Meter: invalid Key Name=\"FANS:DISTRICTHEATING\" - not found.\n   ** Warning ** Output:Meter: invalid Key Name=\"FANS:WATER\" - not found.\n   ** Warning ** Output:Meter: invalid Key Name=\"PUMPS:GAS\" - not found.\n   ** Warning ** Output:Meter: invalid Key Name=\"PUMPS:ADDITIONALFUEL\" - not found.\n   ** Warning ** Output:Meter: invalid Key Name=\"PUMPS:DISTRICTCOOLING\" - not found.\n   ** Warning ** Output:Meter: invalid Key Name=\"PUMPS:DISTRICTHEATING\" - not found.\n   ** Warning ** Output:Meter: invalid Key Name=\"PUMPS:WATER\" - not found.\n   ** Warning ** Output:Meter: invalid Key Name=\"HEATREJECTION:GAS\" - not found.\n   ** Warning ** Output:Meter: invalid Key Name=\"HEATREJECTION:ADDITIONALFUEL\" - not found.\n   ** Warning ** Output:Meter: invalid Key Name=\"HEATREJECTION:DISTRICTCOOLING\" - not found.\n   ** Warning ** Output:Meter: invalid Key Name=\"HEATREJECTION:DISTRICTHEATING\" - not found.\n   ** Warning ** Output:Meter: invalid Key Name=\"HUMIDIFIER:ELECTRICITY\" - not found.\n   ** Warning ** Output:Meter: invalid Key Name=\"HUMIDIFIER:GAS\" - not found.\n   ** Warning ** Output:Meter: invalid Key Name=\"HUMIDIFIER:ADDITIONALFUEL\" - not found.\n   ** Warning ** Output:Meter: invalid Key Name=\"HUMIDIFIER:DISTRICTCOOLING\" - not found.\n   ** Warning ** Output:Meter: invalid Key Name=\"HUMIDIFIER:DISTRICTHEATING\" - not found.\n   ** Warning ** Output:Meter: invalid Key Name=\"HUMIDIFIER:WATER\" - not found.\n   ** Warning ** Output:Meter: invalid Key Name=\"HEATRECOVERY:ELECTRICITY\" - not found.\n   ** Warning ** Output:Meter: invalid Key Name=\"HEATRECOVERY:GAS\" - not found.\n   ** Warning ** Output:Meter: invalid Key Name=\"HEATRECOVERY:ADDITIONALFUEL\" - not found.\n   ** Warning ** Output:Meter: invalid Key Name=\"HEATRECOVERY:DISTRICTCOOLING\" - not found.\n   ** Warning ** Output:Meter: invalid Key Name=\"HEATRECOVERY:DISTRICTHEATING\" - not found.\n   ** Warning ** Output:Meter: invalid Key Name=\"HEATRECOVERY:WATER\" - not found.\n   ** Warning ** Output:Meter: invalid Key Name=\"WATERSYSTEMS:ELECTRICITY\" - not found.\n   ** Warning ** Output:Meter: invalid Key Name=\"WATERSYSTEMS:ADDITIONALFUEL\" - not found.\n   ** Warning ** Output:Meter: invalid Key Name=\"WATERSYSTEMS:DISTRICTCOOLING\" - not found.\n   ** Warning ** Output:Meter: invalid Key Name=\"WATERSYSTEMS:DISTRICTHEATING\" - not found.\n   ** Warning ** Output:Meter: invalid Key Name=\"REFRIGERATION:ELECTRICITY\" - not found.\n   ** Warning ** Output:Meter: invalid Key Name=\"REFRIGERATION:GAS\" - not found.\n   ** Warning ** Output:Meter: invalid Key Name=\"REFRIGERATION:ADDITIONALFUEL\" - not found.\n   ** Warning ** Output:Meter: invalid Key Name=\"REFRIGERATION:DISTRICTCOOLING\" - not found.\n   ** Warning ** Output:Meter: invalid Key Name=\"REFRIGERATION:DISTRICTHEATING\" - not found.\n   ** Warning ** Output:Meter: invalid Key Name=\"REFRIGERATION:WATER\" - not found.\n   ** Warning ** Output:Meter: invalid Key Name=\"GENERATORS:ELECTRICITY\" - not found.\n   ** Warning ** Output:Meter: invalid Key Name=\"GENERATORS:GAS\" - not found.\n   ** Warning ** Output:Meter: invalid Key Name=\"GENERATORS:ADDITIONALFUEL\" - not found.\n   ** Warning ** Output:Meter: invalid Key Name=\"GENERATORS:DISTRICTCOOLING\" - not found.\n   ** Warning ** Output:Meter: invalid Key Name=\"GENERATORS:DISTRICTHEATING\" - not found.\n   ** Warning ** Output:Meter: invalid Key Name=\"GENERATORS:WATER\" - not found.\n   ** Warning ** Output:Meter: invalid Key Name=\"ADDITIONALFUEL:FACILITY\" - not found.\n   ** Warning ** Output:Meter: invalid Key Name=\"DISTRICTCOOLING:FACILITY\" - not found.\n   ** Warning ** Output:Meter: invalid Key Name=\"DISTRICTHEATING:FACILITY\" - not found.\n   ** Warning ** Output:Meter: invalid Key Name=\"DISTRICTCOOLING:FACILITY\" - not found.\n   ** Warning ** Output:Meter: invalid Key Name=\"DISTRICTHEATING:FACILITY\" - not found.\n   ** Warning ** Output:Meter:MeterFileOnly requested for \"Electricity:Facility\" (Hourly), already on \"Output:Meter\". Will report to both eplusout.eso and eplusout.mtr\n   ** Warning ** Output:Meter:MeterFileOnly: invalid Key Name=\"ELECTRICITYPRODUCED:FACILITY\" - not found.\n   ** Warning ** Output:Meter:MeterFileOnly requested for \"Gas:Facility\" (Hourly), already on \"Output:Meter\". Will report to both eplusout.eso and eplusout.mtr\n   ** Warning ** Output:Meter:MeterFileOnly: invalid Key Name=\"DISTRICTCOOLING:FACILITY\" - not found.\n   ** Warning ** Output:Meter:MeterFileOnly: invalid Key Name=\"DISTRICTHEATING:FACILITY\" - not found.\n   ** Warning ** Output:Meter:MeterFileOnly requested for \"Electricity:Facility\" (TimeStep), already on \"Output:Meter\". Will report to both eplusout.eso and eplusout.mtr\n   ************* Testing Individual Branch Integrity\n   ************* All Branches passed integrity testing\n   ************* Testing Individual Supply Air Path Integrity\n   ************* All Supply Air Paths passed integrity testing\n   ************* Testing Individual Return Air Path Integrity\n   ************* All Return Air Paths passed integrity testing\n   ** Severe  ** Node Connection Error, Node=\"ZONE OUTPATIENT ANESTHESIA A  - STORY GROUND EXHAUST FAN INLET AIR NODE\", Inlet node did not find an appropriate matching \"outlet\" node.\n   **   ~~~   ** If this is an outdoor air inlet node, it must be listed in an OutdoorAir:Node or OutdoorAir:NodeList object.\n   **   ~~~   ** Reference Object=FAN:ZONEEXHAUST, Name=ZONE OUTPATIENT ANESTHESIA A  - STORY GROUND EXHAUST FAN\n   ** Severe  ** Node Connection Error, Node=\"ZONE OUTPATIENT ANESTHESIA B  - STORY GROUND EXHAUST FAN INLET AIR NODE\", Inlet node did not find an appropriate matching \"outlet\" node.\n   **   ~~~   ** If this is an outdoor air inlet node, it must be listed in an OutdoorAir:Node or OutdoorAir:NodeList object.\n   **   ~~~   ** Reference Object=FAN:ZONEEXHAUST, Name=ZONE OUTPATIENT ANESTHESIA B  - STORY GROUND EXHAUST FAN\n   ** Severe  ** Node Connection Error, Node=\"ZONE OUTPATIENT ANESTHESIA C  - STORY GROUND EXHAUST FAN INLET AIR NODE\", Inlet node did not find an appropriate matching \"outlet\" node.\n   **   ~~~   ** If this is an outdoor air inlet node, it must be listed in an OutdoorAir:Node or OutdoorAir:NodeList object.\n   **   ~~~   ** Reference Object=FAN:ZONEEXHAUST, Name=ZONE OUTPATIENT ANESTHESIA C  - STORY GROUND EXHAUST FAN\n   ** Severe  ** Node Connection Error, Node=\"ZONE OUTPATIENT MRI A  - STORY GROUND EXHAUST FAN INLET AIR NODE\", Inlet node did not find an appropriate matching \"outlet\" node.\n   **   ~~~   ** If this is an outdoor air inlet node, it must be listed in an OutdoorAir:Node or OutdoorAir:NodeList object.\n   **   ~~~   ** Reference Object=FAN:ZONEEXHAUST, Name=ZONE OUTPATIENT MRI A  - STORY GROUND EXHAUST FAN\n   ** Severe  ** Node Connection Error, Node=\"ZONE OUTPATIENT MRI B  - STORY GROUND EXHAUST FAN INLET AIR NODE\", Inlet node did not find an appropriate matching \"outlet\" node.\n   **   ~~~   ** If this is an outdoor air inlet node, it must be listed in an OutdoorAir:Node or OutdoorAir:NodeList object.\n   **   ~~~   ** Reference Object=FAN:ZONEEXHAUST, Name=ZONE OUTPATIENT MRI B  - STORY GROUND EXHAUST FAN\n   ** Severe  ** Node Connection Error, Node=\"ZONE OUTPATIENT MRI C  - STORY GROUND EXHAUST FAN INLET AIR NODE\", Inlet node did not find an appropriate matching \"outlet\" node.\n   **   ~~~   ** If this is an outdoor air inlet node, it must be listed in an OutdoorAir:Node or OutdoorAir:NodeList object.\n   **   ~~~   ** Reference Object=FAN:ZONEEXHAUST, Name=ZONE OUTPATIENT MRI C  - STORY GROUND EXHAUST FAN\n   ** Severe  ** Node Connection Error, Node=\"ZONE OUTPATIENT MRI_CONTROL A  - STORY GROUND EXHAUST FAN INLET AIR NODE\", Inlet node did not find an appropriate matching \"outlet\" node.\n   **   ~~~   ** If this is an outdoor air inlet node, it must be listed in an OutdoorAir:Node or OutdoorAir:NodeList object.\n   **   ~~~   ** Reference Object=FAN:ZONEEXHAUST, Name=ZONE OUTPATIENT MRI_CONTROL A  - STORY GROUND EXHAUST FAN\n   ** Severe  ** Node Connection Error, Node=\"ZONE OUTPATIENT MRI_CONTROL B  - STORY GROUND EXHAUST FAN INLET AIR NODE\", Inlet node did not find an appropriate matching \"outlet\" node.\n   **   ~~~   ** If this is an outdoor air inlet node, it must be listed in an OutdoorAir:Node or OutdoorAir:NodeList object.\n   **   ~~~   ** Reference Object=FAN:ZONEEXHAUST, Name=ZONE OUTPATIENT MRI_CONTROL B  - STORY GROUND EXHAUST FAN\n   ** Severe  ** Node Connection Error, Node=\"ZONE OUTPATIENT MRI_CONTROL C  - STORY GROUND EXHAUST FAN INLET AIR NODE\", Inlet node did not find an appropriate matching \"outlet\" node.\n   **   ~~~   ** If this is an outdoor air inlet node, it must be listed in an OutdoorAir:Node or OutdoorAir:NodeList object.\n   **   ~~~   ** Reference Object=FAN:ZONEEXHAUST, Name=ZONE OUTPATIENT MRI_CONTROL C  - STORY GROUND EXHAUST FAN\n   ** Severe  ** Node Connection Error, Node=\"ZONE OUTPATIENT SOIL WORK A  - STORY GROUND EXHAUST FAN INLET AIR NODE\", Inlet node did not find an appropriate matching \"outlet\" node.\n   **   ~~~   ** If this is an outdoor air inlet node, it must be listed in an OutdoorAir:Node or OutdoorAir:NodeList object.\n   **   ~~~   ** Reference Object=FAN:ZONEEXHAUST, Name=ZONE OUTPATIENT SOIL WORK A  - STORY GROUND EXHAUST FAN\n   ** Severe  ** Node Connection Error, Node=\"ZONE OUTPATIENT SOIL WORK B  - STORY GROUND EXHAUST FAN INLET AIR NODE\", Inlet node did not find an appropriate matching \"outlet\" node.\n   **   ~~~   ** If this is an outdoor air inlet node, it must be listed in an OutdoorAir:Node or OutdoorAir:NodeList object.\n   **   ~~~   ** Reference Object=FAN:ZONEEXHAUST, Name=ZONE OUTPATIENT SOIL WORK B  - STORY GROUND EXHAUST FAN\n   ** Severe  ** Node Connection Error, Node=\"ZONE OUTPATIENT SOIL WORK C  - STORY GROUND EXHAUST FAN INLET AIR NODE\", Inlet node did not find an appropriate matching \"outlet\" node.\n   **   ~~~   ** If this is an outdoor air inlet node, it must be listed in an OutdoorAir:Node or OutdoorAir:NodeList object.\n   **   ~~~   ** Reference Object=FAN:ZONEEXHAUST, Name=ZONE OUTPATIENT SOIL WORK C  - STORY GROUND EXHAUST FAN\n   ** Severe  ** Node Connection Error, Node=\"ZONE OUTPATIENT TOILET A  - STORY MID EXHAUST FAN INLET AIR NODE\", Inlet node did not find an appropriate matching \"outlet\" node.\n   **   ~~~   ** If this is an outdoor air inlet node, it must be listed in an OutdoorAir:Node or OutdoorAir:NodeList object.\n   **   ~~~   ** Reference Object=FAN:ZONEEXHAUST, Name=ZONE OUTPATIENT TOILET A  - STORY MID EXHAUST FAN\n   ** Severe  ** Node Connection Error, Node=\"ZONE OUTPATIENT TOILET A END_A - STORY MID EXHAUST FAN INLET AIR NODE\", Inlet node did not find an appropriate matching \"outlet\" node.\n   **   ~~~   ** If this is an outdoor air inlet node, it must be listed in an OutdoorAir:Node or OutdoorAir:NodeList object.\n   **   ~~~   ** Reference Object=FAN:ZONEEXHAUST, Name=ZONE OUTPATIENT TOILET A END_A - STORY MID EXHAUST FAN\n   ** Severe  ** Node Connection Error, Node=\"ZONE OUTPATIENT TOILET B  - STORY MID EXHAUST FAN INLET AIR NODE\", Inlet node did not find an appropriate matching \"outlet\" node.\n   **   ~~~   ** If this is an outdoor air inlet node, it must be listed in an OutdoorAir:Node or OutdoorAir:NodeList object.\n   **   ~~~   ** Reference Object=FAN:ZONEEXHAUST, Name=ZONE OUTPATIENT TOILET B  - STORY MID EXHAUST FAN\n   ** Severe  ** Node Connection Error, Node=\"ZONE OUTPATIENT TOILET B END_A - STORY MID EXHAUST FAN INLET AIR NODE\", Inlet node did not find an appropriate matching \"outlet\" node.\n   **   ~~~   ** If this is an outdoor air inlet node, it must be listed in an OutdoorAir:Node or OutdoorAir:NodeList object.\n   **   ~~~   ** Reference Object=FAN:ZONEEXHAUST, Name=ZONE OUTPATIENT TOILET B END_A - STORY MID EXHAUST FAN\n   ** Severe  ** Node Connection Error, Node=\"ZONE OUTPATIENT TOILET C  - STORY MID EXHAUST FAN INLET AIR NODE\", Inlet node did not find an appropriate matching \"outlet\" node.\n   **   ~~~   ** If this is an outdoor air inlet node, it must be listed in an OutdoorAir:Node or OutdoorAir:NodeList object.\n   **   ~~~   ** Reference Object=FAN:ZONEEXHAUST, Name=ZONE OUTPATIENT TOILET C  - STORY MID EXHAUST FAN\n   ** Severe  ** Node Connection Error, Node=\"ZONE OUTPATIENT TOILET C END_A - STORY MID EXHAUST FAN INLET AIR NODE\", Inlet node did not find an appropriate matching \"outlet\" node.\n   **   ~~~   ** If this is an outdoor air inlet node, it must be listed in an OutdoorAir:Node or OutdoorAir:NodeList object.\n   **   ~~~   ** Reference Object=FAN:ZONEEXHAUST, Name=ZONE OUTPATIENT TOILET C END_A - STORY MID EXHAUST FAN\n   ************* There were 18 node connection errors noted.\n   ************* Beginning Simulation\n   ** Warning ** Processing Monthly Tabular Reports: Variable names not valid for this simulation\n   **   ~~~   ** ...use Output:Diagnostics,DisplayExtraWarnings; to show more details on individual variables.\n   ** Warning ** The resource referenced by LifeCycleCost:UsePriceEscalation= \"U.S. AVG  COMMERCIAL-ELECTRICITY\" has no energy cost. \n   **   ~~~   ** ... It is likely that the wrong resource is used. The resource should match the meter used in Utility:Tariff.\n   ** Warning ** The resource referenced by LifeCycleCost:UsePriceEscalation= \"U.S. AVG  COMMERCIAL-DISTILLATE OIL\" has no energy cost. \n   **   ~~~   ** ... It is likely that the wrong resource is used. The resource should match the meter used in Utility:Tariff.\n   ** Warning ** The resource referenced by LifeCycleCost:UsePriceEscalation= \"U.S. AVG  COMMERCIAL-RESIDUAL OIL\" has no energy cost. \n   **   ~~~   ** ... It is likely that the wrong resource is used. The resource should match the meter used in Utility:Tariff.\n   ** Warning ** The resource referenced by LifeCycleCost:UsePriceEscalation= \"U.S. AVG  COMMERCIAL-NATURAL GAS\" has no energy cost. \n   **   ~~~   ** ... It is likely that the wrong resource is used. The resource should match the meter used in Utility:Tariff.\n   ** Warning ** The resource referenced by LifeCycleCost:UsePriceEscalation= \"U.S. AVG  COMMERCIAL-COAL\" has no energy cost. \n   **   ~~~   ** ... It is likely that the wrong resource is used. The resource should match the meter used in Utility:Tariff.\n   ************* Simulation Error Summary *************\n   ** Warning ** The following Report Variables were requested but not generated -- check.rdd file\n   **   ~~~   ** Either the IDF did not contain these elements, the variable name is misspelled,\n   **   ~~~   ** or the requested variable is an advanced output which requires Output : Diagnostics, DisplayAdvancedReportVariables;\n   ************* Key=*, VarName=DISTRICT COOLING CHILLED WATER RATE, Frequency=Hourly\n   ************* Key=*, VarName=DISTRICT COOLING MASS FLOW RATE, Frequency=Hourly\n   ************* Key=*, VarName=DISTRICT COOLING INLET TEMPERATURE, Frequency=Hourly\n   ************* Key=*, VarName=DISTRICT COOLING OUTLET TEMPERATURE, Frequency=Hourly\n   ************* Key=*, VarName=DISTRICT HEATING HOT WATER RATE, Frequency=Hourly\n   ************* Key=*, VarName=DISTRICT HEATING MASS FLOW RATE, Frequency=Hourly\n   ************* Key=*, VarName=DISTRICT HEATING INLET TEMPERATURE, Frequency=Hourly\n   ************* Key=*, VarName=DISTRICT HEATING OUTLET TEMPERATURE, Frequency=Hourly\n   ************* There are 11 unused schedules in input.\n   ************* There are 12 unused week schedules in input.\n   ************* There are 45 unused day schedules in input.\n   ************* Use Output:Diagnostics,DisplayUnusedSchedules; to see them.\n   *************\n   ************* ===== Final Error Summary =====\n   ************* The following error categories occurred.  Consider correcting or noting.\n   ************* Node Connection Errors\n   ************* ..Node connection errors are often caused by spelling mistakes in a node name field.\n   ************* ..To track down the problem, search the idf file for each node name listed to see if it\n   ************* ..occurs in the expected input fields.\n   ************* Nominally Unused Constructions\n   ************* ..The nominally unused constructions warning is provided to alert you to potential conditions that can cause\n   ************* ..extra time during simulation. Each construction is calculated by the algorithm indicated in the HeatBalanceAlgorithm\n   ************* ..object. You may remove the constructions indicated (when you use the DisplayExtraWarnings option).\n   *************\n   ************* EnergyPlus Warmup Error Summary. During Warmup: 0 Warning; 0 Severe Errors.\n   ************* EnergyPlus Sizing Error Summary. During Sizing: 53 Warning; 0 Severe Errors.\n   ************* EnergyPlus Completed Successfully-- 159 Warning; 36 Severe Errors; Elapsed Time=00hr 04min  9.74sec\n",
   "file_paths" : [
      "/Users/tkwasnik/github/urbanopt-example-geojson-reopt-project/run/baseline_scenario/8/generated_files",
      "/Users/tkwasnik/github/urbanopt-example-geojson-reopt-project/mappers/../weather/",
      "/Users/tkwasnik/github/urbanopt-example-geojson-reopt-project/.bundle/install/ruby/2.2.0/gems/openstudio-common-measures-0.1.0/lib/files",
      "/Users/tkwasnik/github/urbanopt-example-geojson-reopt-project/.bundle/install/ruby/2.2.0/gems/openstudio-extension-0.1.3/lib/files",
      "/Users/tkwasnik/github/urbanopt-example-geojson-reopt-project/weather",
      "/Users/tkwasnik/github/urbanopt-example-geojson-reopt-project/.bundle/install/ruby/2.2.0/bundler/gems/urbanopt-reopt-gem-9d3a2c58ed2e/lib/files",
      "/Users/tkwasnik/github/urbanopt-example-geojson-reopt-project/.bundle/install/ruby/2.2.0/gems/openstudio-model-articulation-0.1.0/lib/files",
      "./files",
      "./weather",
      "../../files",
      "../../weather",
      "./"
   ],
   "hash" : "B654AC45",
   "measure_paths" : [
      "/Users/tkwasnik/github/urbanopt-example-geojson-reopt-project/.bundle/install/ruby/2.2.0/bundler/gems/urbanopt-geojson-gem-b4618102cfc8/lib/measures",
      "/Users/tkwasnik/github/urbanopt-example-geojson-reopt-project/.bundle/install/ruby/2.2.0/gems/openstudio-common-measures-0.1.0/lib/measures",
      "/Users/tkwasnik/github/urbanopt-example-geojson-reopt-project/.bundle/install/ruby/2.2.0/gems/openstudio-extension-0.1.3/lib/measures",
      "/Users/tkwasnik/github/urbanopt-example-geojson-reopt-project/.bundle/install/ruby/2.2.0/bundler/gems/urbanopt-scenario-gem-da28d381c70f/lib/measures",
      "/Users/tkwasnik/github/urbanopt-example-geojson-reopt-project/.bundle/install/ruby/2.2.0/bundler/gems/urbanopt-reopt-gem-9d3a2c58ed2e/lib/measures",
      "/Users/tkwasnik/github/urbanopt-example-geojson-reopt-project/.bundle/install/ruby/2.2.0/gems/openstudio-model-articulation-0.1.0/lib/measures"
   ],
   "name" : "Hospital 1",
   "run_directory" : "/Users/tkwasnik/github/urbanopt-example-geojson-reopt-project/run/baseline_scenario/8",
   "seed_file" : null,
   "started_at" : "20191231T195408Z",
   "steps" : [
      {
         "arguments" : {
            "begin_date" : "2018-01-01",
            "end_date" : "2018-12-31",
            "timesteps_per_hour" : 1
         },
         "measure_dir_name" : "set_run_period",
         "result" : {
            "completed_at" : "20191231T195408Z",
            "measure_class_name" : "SetRunPeriod",
            "measure_display_name" : "SetRunPeriod",
            "measure_name" : "set_run_period",
            "measure_taxonomy" : "Envelope.Form",
            "measure_type" : "ModelMeasure",
            "measure_uid" : "7a84292a-3975-4ab3-9284-6edabcbe750b",
            "measure_version_id" : "62323562-963d-4e61-8dc1-33935da3c01e",
            "measure_version_modified" : "20191029T231304Z",
            "measure_xml_checksum" : "2AF3A68E",
            "started_at" : "20191231T195408Z",
            "stderr" : "",
            "stdout" : "",
            "step_errors" : [],
            "step_files" : [],
            "step_info" : [],
            "step_result" : "Success",
            "step_values" : [
               {
                  "name" : "timesteps_per_hour",
                  "value" : 1
               },
               {
                  "name" : "begin_date",
                  "value" : "2018-01-01"
               },
               {
                  "name" : "end_date",
                  "value" : "2018-12-31"
               }
            ],
            "step_warnings" : []
         }
      },
      {
         "arguments" : {
            "climate_zone" : "6A",
            "weather_file_name" : "USA_NY_Buffalo-Greater.Buffalo.Intl.AP.725280_TMY3.epw"
         },
         "measure_dir_name" : "ChangeBuildingLocation",
         "result" : {
            "completed_at" : "20191231T195409Z",
            "measure_class_name" : "ChangeBuildingLocation",
            "measure_display_name" : "ChangeBuildingLocation",
            "measure_name" : "change_building_location",
            "measure_taxonomy" : "Whole Building.Space Types",
            "measure_type" : "ModelMeasure",
            "measure_uid" : "d4db4971-f5ba-11e3-a3ac-0800200c9a66",
            "measure_version_id" : "9938c101-08b8-4eaa-9eb4-4f6e5c8921b0",
            "measure_version_modified" : "20191029T231254Z",
            "measure_xml_checksum" : "057E8D9D",
            "started_at" : "20191231T195408Z",
            "stderr" : "",
            "stdout" : "[openstudio.model.YearDescription] <1> 'UseWeatherFile' is not yet a supported option for YearDescription\n[openstudio.model.YearDescription] <1> 'UseWeatherFile' is not yet a supported option for YearDescription\n",
            "step_errors" : [],
            "step_files" : [],
            "step_final_condition" : "The final weather file is Buffalo Niagara Intl Ap and the model has 3 design day objects.",
            "step_info" : [
               "city is Buffalo Niagara Intl Ap. State is NY",
               "mean dry bulb is 8.966666666666667",
               "Adding object Buffalo Niagara Intl Ap Ann Htg 99.6% Condns DB",
               "Adding object Buffalo Niagara Intl Ap Ann Clg .4% Condns DB=>MWB",
               "Adding object Buffalo Niagara Intl Ap Ann Clg .4% Condns WB=>MDB",
               "Setting Climate Zone to 6A"
            ],
            "step_initial_condition" : "No weather file is set. The model has 0 design day objects",
            "step_result" : "Success",
            "step_values" : [
               {
                  "name" : "weather_file_name",
                  "value" : "USA_NY_Buffalo-Greater.Buffalo.Intl.AP.725280_TMY3.epw"
               },
               {
                  "name" : "climate_zone",
                  "value" : "6A"
               },
               {
                  "name" : "set_year",
                  "value" : 0
               },
               {
                  "name" : "use_upstream_args",
                  "value" : true
               }
            ],
            "step_warnings" : [ "weather_file.path is ." ]
         }
      },
      {
         "arguments" : {
            "bar_division_method" : "Multiple Space Types - Individual Stories Sliced",
            "bldg_type_a" : "Outpatient",
            "bldg_type_a_num_units" : 0,
            "bldg_type_b" : "SmallOffice",
            "bldg_type_b_fract_bldg_area" : 0,
            "bldg_type_b_num_units" : 0,
            "bldg_type_c" : "SmallOffice",
            "bldg_type_c_fract_bldg_area" : 0,
            "bldg_type_c_num_units" : 0,
            "bldg_type_d" : "SmallOffice",
            "bldg_type_d_fract_bldg_area" : 0,
            "bldg_type_d_num_units" : 0,
            "building_rotation" : 0,
            "floor_height" : 10,
            "ns_to_ew_ratio" : 0,
            "num_stories_above_grade" : 10,
            "num_stories_below_grade" : 0,
            "party_wall_fraction" : 0,
            "single_floor_area" : 40320,
            "story_multiplier" : "None",
            "template" : "90.1-2004",
            "wwr" : 0
         },
         "measure_dir_name" : "create_bar_from_building_type_ratios",
         "result" : {
            "completed_at" : "20191231T195455Z",
            "measure_class_name" : "CreateBarFromBuildingTypeRatios",
            "measure_display_name" : "Create Bar From Building Type Ratios",
            "measure_name" : "create_bar_from_building_type_ratios",
            "measure_taxonomy" : "Envelope.Form",
            "measure_type" : "ModelMeasure",
            "measure_uid" : "6e3a14f8-c3c7-4e03-bc51-bef8a52e1a05",
            "measure_version_id" : "c56c06d4-914c-4bb0-a924-d3e790ec69a7",
            "measure_version_modified" : "20191030T020543Z",
            "measure_xml_checksum" : "2AF3A68E",
            "started_at" : "20191231T195417Z",
            "stderr" : "",
            "stdout" : "",
            "step_errors" : [],
            "step_files" : [],
            "step_final_condition" : "The building finished with 177 spaces.",
            "step_info" : [
               "0.0 value for aspect ratio will be replaced with smart default for Outpatient of 3.6.",
               "0.0 value for window to wall ratio will be replaced with smart default for Outpatient of 0.2.",
               "Creating Space Types for Outpatient.",
               "Intersecting surfaces, this will create additional geometry.",
               "Created Bar envlope with floor area of 403,200 (ft^2)",
               "Target party wall fraction is 0.0. Realized fraction is 0.0"
            ],
            "step_initial_condition" : "The building started with 0 spaces.",
            "step_result" : "Success",
            "step_values" : [
               {
                  "name" : "bldg_type_a",
                  "value" : "Outpatient"
               },
               {
                  "name" : "bldg_type_a_num_units",
                  "value" : 0
               },
               {
                  "name" : "bldg_type_b",
                  "value" : "SmallOffice"
               },
               {
                  "name" : "bldg_type_b_fract_bldg_area",
                  "value" : 0
               },
               {
                  "name" : "bldg_type_b_num_units",
                  "value" : 0
               },
               {
                  "name" : "bldg_type_c",
                  "value" : "SmallOffice"
               },
               {
                  "name" : "bldg_type_c_fract_bldg_area",
                  "value" : 0
               },
               {
                  "name" : "bldg_type_c_num_units",
                  "value" : 0
               },
               {
                  "name" : "bldg_type_d",
                  "value" : "SmallOffice"
               },
               {
                  "name" : "bldg_type_d_fract_bldg_area",
                  "value" : 0
               },
               {
                  "name" : "bldg_type_d_num_units",
                  "value" : 0
               },
               {
                  "name" : "single_floor_area",
                  "value" : 40320
               },
               {
                  "name" : "total_bldg_floor_area",
                  "value" : 10000
               },
               {
                  "name" : "floor_height",
                  "value" : 10
               },
               {
                  "name" : "num_stories_above_grade",
                  "value" : 10
               },
               {
                  "name" : "num_stories_below_grade",
                  "value" : 0
               },
               {
                  "name" : "building_rotation",
                  "value" : 0
               },
               {
                  "name" : "template",
                  "value" : "90.1-2004"
               },
               {
                  "name" : "ns_to_ew_ratio",
                  "value" : 0
               },
               {
                  "name" : "wwr",
                  "value" : 0
               },
               {
                  "name" : "party_wall_fraction",
                  "value" : 0
               },
               {
                  "name" : "party_wall_stories_north",
                  "value" : 0
               },
               {
                  "name" : "party_wall_stories_south",
                  "value" : 0
               },
               {
                  "name" : "party_wall_stories_east",
                  "value" : 0
               },
               {
                  "name" : "party_wall_stories_west",
                  "value" : 0
               },
               {
                  "name" : "bottom_story_ground_exposed_floor",
                  "value" : true
               },
               {
                  "name" : "top_story_exterior_exposed_roof",
                  "value" : true
               },
               {
                  "name" : "story_multiplier",
                  "value" : "None"
               },
               {
                  "name" : "bar_division_method",
                  "value" : "Multiple Space Types - Individual Stories Sliced"
               },
               {
                  "name" : "make_mid_story_surfaces_adiabatic",
                  "value" : false
               },
               {
                  "name" : "use_upstream_args",
                  "value" : true
               },
               {
                  "name" : "party_wall_fraction_actual",
                  "value" : 0
               }
            ],
            "step_warnings" : [
               "Could not find color for 90.1-2004 Outpatient Anesthesia",
               "Could not find color for 90.1-2004 Outpatient BioHazard",
               "Could not find color for 90.1-2004 Outpatient Cafe",
               "Could not find color for 90.1-2004 Outpatient CleanWork",
               "Could not find color for 90.1-2004 Outpatient Conference",
               "Could not find color for 90.1-2004 Outpatient DresingRoom",
               "Could not find color for 90.1-2004 Outpatient Elec/MechRoom",
               "Could not find color for 90.1-2004 Outpatient ElevatorPumpRoom",
               "Could not find color for 90.1-2004 Outpatient Exam",
               "Could not find color for 90.1-2004 Outpatient Hall",
               "Could not find color for 90.1-2004 Outpatient IT_Room",
               "Could not find color for 90.1-2004 Outpatient Janitor",
               "Could not find color for 90.1-2004 Outpatient Lobby",
               "Could not find color for 90.1-2004 Outpatient LockerRoom",
               "Could not find color for 90.1-2004 Outpatient Lounge",
               "Could not find color for 90.1-2004 Outpatient MedGas",
               "Could not find color for 90.1-2004 Outpatient MRI",
               "Could not find color for 90.1-2004 Outpatient MRI_Control",
               "Could not find color for 90.1-2004 Outpatient NurseStation",
               "Could not find color for 90.1-2004 Outpatient Office",
               "Could not find color for 90.1-2004 Outpatient OR",
               "Could not find color for 90.1-2004 Outpatient PACU",
               "Could not find color for 90.1-2004 Outpatient PhysicalTherapy",
               "Could not find color for 90.1-2004 Outpatient PreOp",
               "Could not find color for 90.1-2004 Outpatient ProcedureRoom",
               "Could not find color for 90.1-2004 Outpatient Reception",
               "Could not find color for 90.1-2004 Outpatient Soil Work",
               "Could not find color for 90.1-2004 Outpatient Stair",
               "Could not find color for 90.1-2004 Outpatient Toilet",
               "Could not find color for 90.1-2004 Outpatient Xray",
               "User-defined single floor area was used for calculation of total building floor area"
            ]
         }
      },
      {
         "arguments" : {
            "add_hvac" : false
         },
         "measure_dir_name" : "create_typical_building_from_model",
         "name" : "create_typical_building_from_model 1",
         "result" : {
            "completed_at" : "20191231T195509Z",
            "measure_class_name" : "CreateTypicalBuildingFromModel",
            "measure_display_name" : "Create Typical Building from Model",
            "measure_name" : "create_typical_building_from_model",
            "measure_taxonomy" : "Whole Building.Space Types",
            "measure_type" : "ModelMeasure",
            "measure_uid" : "339a2e3a-273c-4494-bb50-bfe586a0647c",
            "measure_version_id" : "87ebffcf-eacc-4a82-9543-d033695df855",
            "measure_version_modified" : "20191030T020543Z",
            "measure_xml_checksum" : "EE13F09F",
            "started_at" : "20191231T195455Z",
            "stderr" : "",
            "stdout" : "[utilities.geometry.joinAll] <1> Expected polygons to join together\n[utilities.geometry.joinAll] <1> Expected polygons to join together\n[utilities.geometry.joinAll] <1> Expected polygons to join together\n[utilities.geometry.joinAll] <1> Expected polygons to join together\n[utilities.geometry.joinAll] <1> Expected polygons to join together\n[utilities.geometry.joinAll] <1> Expected polygons to join together\n[utilities.geometry.joinAll] <1> Expected polygons to join together\n[utilities.geometry.joinAll] <1> Expected polygons to join together\n",
            "step_errors" : [],
            "step_files" : [],
            "step_final_condition" : "The building finished with 4100 objects.",
            "step_info" : [
               "Replacing argument named template from current measure with a value of 90.1-2004 from create_bar_from_building_type_ratios.",
               "Adding loads to space type named Outpatient Xray - 90.1-2004",
               "Adding loads to space type named Outpatient Reception - 90.1-2004",
               "Adding loads to space type named Outpatient ProcedureRoom - 90.1-2004",
               "Adding loads to space type named Outpatient PhysicalTherapy - 90.1-2004",
               "Adding loads to space type named Outpatient Stair - 90.1-2004",
               "Adding loads to space type named Outpatient BioHazard - 90.1-2004",
               "Adding loads to space type named Outpatient MRI_Control - 90.1-2004",
               "Adding loads to space type named Outpatient PACU - 90.1-2004",
               "Adding loads to space type named Outpatient DresingRoom - 90.1-2004",
               "Adding loads to space type named Outpatient MRI - 90.1-2004",
               "Adding loads to space type named Outpatient LockerRoom - 90.1-2004",
               "Adding loads to space type named Outpatient Conference - 90.1-2004",
               "Adding loads to space type named Outpatient Office - 90.1-2004",
               "Adding loads to space type named Outpatient MedGas - 90.1-2004",
               "Adding loads to space type named Outpatient Lobby - 90.1-2004",
               "Adding loads to space type named Outpatient PreOp - 90.1-2004",
               "Adding loads to space type named Outpatient NurseStation - 90.1-2004",
               "Adding loads to space type named Outpatient Toilet - 90.1-2004",
               "Adding loads to space type named Outpatient CleanWork - 90.1-2004",
               "Adding loads to space type named Outpatient IT_Room - 90.1-2004",
               "Adding loads to space type named Outpatient OR - 90.1-2004",
               "Adding loads to space type named Outpatient ElevatorPumpRoom - 90.1-2004",
               "Adding loads to space type named Outpatient Anesthesia - 90.1-2004",
               "Adding loads to space type named Outpatient Hall - 90.1-2004",
               "Adding loads to space type named Outpatient Cafe - 90.1-2004",
               "Adding loads to space type named Outpatient Exam - 90.1-2004",
               "Adding loads to space type named Outpatient Elec/MechRoom - 90.1-2004",
               "Adding loads to space type named Outpatient Lounge - 90.1-2004",
               "Adding loads to space type named Outpatient Soil Work - 90.1-2004",
               "Adding loads to space type named Outpatient Janitor - 90.1-2004",
               "Adding default construction set named Res 90.1-2004 - Outpatient - ASHRAE 169-2013-6A",
               "Adding 27.0 elevators each with power of 20,370 (W), plus lights and fans.",
               "Adding Exterior Lights named Parking Areas and Drives Def (W/ft^2) with design level of 0.15 * 816,480.",
               "Adding Exterior Lights named Building Facades Def (W/ft^2) with design level of 0.2 * 9,736.",
               "Adding Exterior Lights named Main Entries Def (W/ft) with design level of 30.0 * 32.",
               "Adding Exterior Lights named Other Doors Def (W/ft) with design level of 20.0 * 84.",
               "Adding 216 (cfm) of exhaust to Zone Outpatient Anesthesia A  - Story Ground",
               "Adding 1,093 (cfm) of exhaust to Zone Outpatient Anesthesia B  - Story Ground",
               "Adding 216 (cfm) of exhaust to Zone Outpatient Anesthesia C  - Story Ground",
               "Adding 667 (cfm) of exhaust to Zone Outpatient MRI A  - Story Ground",
               "Adding 3,373 (cfm) of exhaust to Zone Outpatient MRI B  - Story Ground",
               "Adding 667 (cfm) of exhaust to Zone Outpatient MRI C  - Story Ground",
               "Adding 256 (cfm) of exhaust to Zone Outpatient MRI_Control A  - Story Ground",
               "Adding 1,292 (cfm) of exhaust to Zone Outpatient MRI_Control B  - Story Ground",
               "Adding 256 (cfm) of exhaust to Zone Outpatient MRI_Control C  - Story Ground",
               "Adding 915 (cfm) of exhaust to Zone Outpatient Soil Work A  - Story Ground",
               "Adding 4,623 (cfm) of exhaust to Zone Outpatient Soil Work B  - Story Ground",
               "Adding 915 (cfm) of exhaust to Zone Outpatient Soil Work C  - Story Ground",
               "Adding 1,631 (cfm) of exhaust to Zone Outpatient Toilet A  - Story Mid",
               "Adding 375 (cfm) of exhaust to Zone Outpatient Toilet A end_a - Story Mid",
               "Adding 8,244 (cfm) of exhaust to Zone Outpatient Toilet B  - Story Mid",
               "Adding 1,896 (cfm) of exhaust to Zone Outpatient Toilet B end_a - Story Mid",
               "Adding 1,631 (cfm) of exhaust to Zone Outpatient Toilet C  - Story Mid",
               "Adding 375 (cfm) of exhaust to Zone Outpatient Toilet C end_a - Story Mid",
               "Adding Outpatient Shared Service Water Loop to the building. It has 9 water use connections.",
               "Assigning Outpatient Xray - 90.1-2004 Thermostat to thermal zones with Outpatient Xray - 90.1-2004 assigned.",
               "Assigning Outpatient Reception - 90.1-2004 Thermostat to thermal zones with Outpatient Reception - 90.1-2004 assigned.",
               "Assigning Outpatient ProcedureRoom - 90.1-2004 Thermostat to thermal zones with Outpatient ProcedureRoom - 90.1-2004 assigned.",
               "Assigning Outpatient PhysicalTherapy - 90.1-2004 Thermostat to thermal zones with Outpatient PhysicalTherapy - 90.1-2004 assigned.",
               "Assigning Outpatient Stair - 90.1-2004 Thermostat to thermal zones with Outpatient Stair - 90.1-2004 assigned.",
               "Assigning Outpatient BioHazard - 90.1-2004 Thermostat to thermal zones with Outpatient BioHazard - 90.1-2004 assigned.",
               "Assigning Outpatient MRI_Control - 90.1-2004 Thermostat to thermal zones with Outpatient MRI_Control - 90.1-2004 assigned.",
               "Assigning Outpatient PACU - 90.1-2004 Thermostat to thermal zones with Outpatient PACU - 90.1-2004 assigned.",
               "Assigning Outpatient MRI - 90.1-2004 Thermostat to thermal zones with Outpatient MRI - 90.1-2004 assigned.",
               "Assigning Outpatient LockerRoom - 90.1-2004 Thermostat to thermal zones with Outpatient LockerRoom - 90.1-2004 assigned.",
               "Assigning Outpatient Conference - 90.1-2004 Thermostat to thermal zones with Outpatient Conference - 90.1-2004 assigned.",
               "Assigning Outpatient Office - 90.1-2004 Thermostat to thermal zones with Outpatient Office - 90.1-2004 assigned.",
               "Assigning Outpatient MedGas - 90.1-2004 Thermostat to thermal zones with Outpatient MedGas - 90.1-2004 assigned.",
               "Assigning Outpatient Lobby - 90.1-2004 Thermostat to thermal zones with Outpatient Lobby - 90.1-2004 assigned.",
               "Assigning Outpatient PreOp - 90.1-2004 Thermostat to thermal zones with Outpatient PreOp - 90.1-2004 assigned.",
               "Assigning Outpatient NurseStation - 90.1-2004 Thermostat to thermal zones with Outpatient NurseStation - 90.1-2004 assigned.",
               "Assigning Outpatient Toilet - 90.1-2004 Thermostat to thermal zones with Outpatient Toilet - 90.1-2004 assigned.",
               "Assigning Outpatient CleanWork - 90.1-2004 Thermostat to thermal zones with Outpatient CleanWork - 90.1-2004 assigned.",
               "Assigning Outpatient IT_Room - 90.1-2004 Thermostat to thermal zones with Outpatient IT_Room - 90.1-2004 assigned.",
               "Assigning Outpatient OR - 90.1-2004 Thermostat to thermal zones with Outpatient OR - 90.1-2004 assigned.",
               "Assigning Outpatient ElevatorPumpRoom - 90.1-2004 Thermostat to thermal zones with Outpatient ElevatorPumpRoom - 90.1-2004 assigned.",
               "Assigning Outpatient Anesthesia - 90.1-2004 Thermostat to thermal zones with Outpatient Anesthesia - 90.1-2004 assigned.",
               "Assigning Outpatient Hall - 90.1-2004 Thermostat to thermal zones with Outpatient Hall - 90.1-2004 assigned.",
               "Assigning Outpatient Cafe - 90.1-2004 Thermostat to thermal zones with Outpatient Cafe - 90.1-2004 assigned.",
               "Assigning Outpatient Exam - 90.1-2004 Thermostat to thermal zones with Outpatient Exam - 90.1-2004 assigned.",
               "Assigning Outpatient Elec/MechRoom - 90.1-2004 Thermostat to thermal zones with Outpatient Elec/MechRoom - 90.1-2004 assigned.",
               "Assigning Outpatient Lounge - 90.1-2004 Thermostat to thermal zones with Outpatient Lounge - 90.1-2004 assigned.",
               "Assigning Outpatient Soil Work - 90.1-2004 Thermostat to thermal zones with Outpatient Soil Work - 90.1-2004 assigned.",
               "Assigning Outpatient Janitor - 90.1-2004 Thermostat to thermal zones with Outpatient Janitor - 90.1-2004 assigned.",
               "Using OpenStudio Standards version 0.2.10 with template 90.1-2004.",
               "Loading OpenStudio Standards data for 90.1-2004",
               "Outpatient Xray had no people, one has been created.",
               "Outpatient Xray set occupancy to 20.02 people/1000 ft^2.",
               "Outpatient Xray had no lights, one has been created.",
               "Outpatient Xray set LPD to 0.4 W/ft^2.",
               "Outpatient Xray had no electric equipment, one has been created.",
               "Outpatient Xray set electric EPD to 10.0 W/ft^2.",
               "Outpatient Xray had no ventilation specification, one has been created.",
               "Outpatient Xray set ventilation per area to 0.3 cfm/ft^2.",
               "Outpatient Xray set occupancy schedule to OutPatientHealthCare BLDG_OCC_SCH.",
               "Outpatient Xray set occupant activity schedule to OutPatientHealthCare ACTIVITY_SCH.",
               "Outpatient Xray set lighting schedule to OutPatientHealthCare BLDG_LIGHT_EXAM_SCH.",
               "Outpatient Xray set electric equipment schedule to OutPatientHealthCare BLDG_EQUIP_SCH_BASE.",
               "Outpatient Xray set infiltration schedule to OutPatientHealthCare INFIL_SCH.",
               "Outpatient Reception had no people, one has been created.",
               "Outpatient Reception set occupancy to 29.97 people/1000 ft^2.",
               "Outpatient Reception had no lights, one has been created.",
               "Outpatient Reception set LPD to 1.3 W/ft^2.",
               "Outpatient Reception had no electric equipment, one has been created.",
               "Outpatient Reception set electric EPD to 1.1 W/ft^2.",
               "Outpatient Reception had no ventilation specification, one has been created.",
               "Outpatient Reception set ventilation per person to 15.0 cfm/person.",
               "Outpatient Reception set occupancy schedule to OutPatientHealthCare BLDG_OCC_SCH.",
               "Outpatient Reception set occupant activity schedule to OutPatientHealthCare ACTIVITY_SCH.",
               "Outpatient Reception set lighting schedule to OutPatientHealthCare BLDG_LIGHT_SCH.",
               "Outpatient Reception set electric equipment schedule to OutPatientHealthCare BLDG_EQUIP_SCH_BASE.",
               "Outpatient Reception set infiltration schedule to OutPatientHealthCare INFIL_SCH.",
               "Outpatient ProcedureRoom had no people, one has been created.",
               "Outpatient ProcedureRoom set occupancy to 20.02 people/1000 ft^2.",
               "Outpatient ProcedureRoom had no lights, one has been created.",
               "Outpatient ProcedureRoom set LPD to 2.7 W/ft^2.",
               "Outpatient ProcedureRoom had no electric equipment, one has been created.",
               "Outpatient ProcedureRoom set electric EPD to 3.0 W/ft^2.",
               "Outpatient ProcedureRoom had no ventilation specification, one has been created.",
               "Outpatient ProcedureRoom set ventilation per area to 0.8 cfm/ft^2.",
               "Outpatient ProcedureRoom set occupancy schedule to OutPatientHealthCare BLDG_OCC_SCH.",
               "Outpatient ProcedureRoom set occupant activity schedule to OutPatientHealthCare ACTIVITY_SCH.",
               "Outpatient ProcedureRoom set lighting schedule to OutPatientHealthCare BLDG_LIGHT_EXAM_SCH.",
               "Outpatient ProcedureRoom set electric equipment schedule to OutPatientHealthCare BLDG_EQUIP_SCH_BASE.",
               "Outpatient ProcedureRoom set infiltration schedule to OutPatientHealthCare INFIL_SCH.",
               "Outpatient PhysicalTherapy had no people, one has been created.",
               "Outpatient PhysicalTherapy set occupancy to 20.02 people/1000 ft^2.",
               "Outpatient PhysicalTherapy had no lights, one has been created.",
               "Outpatient PhysicalTherapy set LPD to 0.9 W/ft^2.",
               "Outpatient PhysicalTherapy had no electric equipment, one has been created.",
               "Outpatient PhysicalTherapy set electric EPD to 1.5 W/ft^2.",
               "Outpatient PhysicalTherapy had no ventilation specification, one has been created.",
               "Outpatient PhysicalTherapy set ventilation per area to 0.47 cfm/ft^2.",
               "Outpatient PhysicalTherapy set occupancy schedule to OutPatientHealthCare BLDG_OCC_SCH.",
               "Outpatient PhysicalTherapy set occupant activity schedule to OutPatientHealthCare ACTIVITY_SCH.",
               "Outpatient PhysicalTherapy set lighting schedule to OutPatientHealthCare BLDG_LIGHT_EXAM_SCH.",
               "Outpatient PhysicalTherapy set electric equipment schedule to OutPatientHealthCare BLDG_EQUIP_SCH_BASE.",
               "Outpatient PhysicalTherapy set infiltration schedule to OutPatientHealthCare INFIL_SCH.",
               "Outpatient Stair had no lights, one has been created.",
               "Outpatient Stair set LPD to 1.0 W/ft^2.",
               "Outpatient Stair had no electric equipment, one has been created.",
               "Outpatient Stair set electric EPD to 0.4 W/ft^2.",
               "Outpatient Stair had no ventilation specification, one has been created.",
               "Outpatient Stair set ventilation per area to 0.05 cfm/ft^2.",
               "Outpatient Stair set occupancy schedule to OutPatientHealthCare BLDG_OCC_SCH.",
               "Outpatient Stair set occupant activity schedule to OutPatientHealthCare ACTIVITY_SCH.",
               "Outpatient Stair set lighting schedule to OutPatientHealthCare BLDG_LIGHT_CORRIDOR_SCH.",
               "Outpatient Stair set electric equipment schedule to OutPatientHealthCare BLDG_EQUIP_SCH_BASE.",
               "Outpatient Stair set infiltration schedule to OutPatientHealthCare INFIL_SCH.",
               "Outpatient BioHazard had no lights, one has been created.",
               "Outpatient BioHazard set LPD to 0.9 W/ft^2.",
               "Outpatient BioHazard had no electric equipment, one has been created.",
               "Outpatient BioHazard set electric EPD to 0.1 W/ft^2.",
               "Outpatient BioHazard had no ventilation specification, one has been created.",
               "Outpatient BioHazard set ventilation per area to 0.15 cfm/ft^2.",
               "Outpatient BioHazard set occupancy schedule to OutPatientHealthCare BLDG_OCC_SCH.",
               "Outpatient BioHazard set occupant activity schedule to OutPatientHealthCare ACTIVITY_SCH.",
               "Outpatient BioHazard set lighting schedule to OutPatientHealthCare BLDG_LIGHT_SCH.",
               "Outpatient BioHazard set electric equipment schedule to OutPatientHealthCare BLDG_EQUIP_SCH_BASE.",
               "Outpatient BioHazard set infiltration schedule to OutPatientHealthCare INFIL_SCH.",
               "Outpatient MRI_Control had no people, one has been created.",
               "Outpatient MRI_Control set occupancy to 20.02 people/1000 ft^2.",
               "Outpatient MRI_Control had no lights, one has been created.",
               "Outpatient MRI_Control set LPD to 0.4 W/ft^2.",
               "Outpatient MRI_Control had no electric equipment, one has been created.",
               "Outpatient MRI_Control set electric EPD to 10.0 W/ft^2.",
               "Outpatient MRI_Control had no ventilation specification, one has been created.",
               "Outpatient MRI_Control set ventilation per area to 0.3 cfm/ft^2.",
               "Outpatient MRI_Control set occupancy schedule to OutPatientHealthCare BLDG_OCC_SCH.",
               "Outpatient MRI_Control set occupant activity schedule to OutPatientHealthCare ACTIVITY_SCH.",
               "Outpatient MRI_Control set lighting schedule to OutPatientHealthCare BLDG_LIGHT_SCH.",
               "Outpatient MRI_Control set electric equipment schedule to OutPatientHealthCare BLDG_EQUIP_SCH_BASE.",
               "Outpatient MRI_Control set infiltration schedule to OutPatientHealthCare INFIL_SCH.",
               "Outpatient PACU had no people, one has been created.",
               "Outpatient PACU set occupancy to 20.02 people/1000 ft^2.",
               "Outpatient PACU had no lights, one has been created.",
               "Outpatient PACU set LPD to 0.8 W/ft^2.",
               "Outpatient PACU had no electric equipment, one has been created.",
               "Outpatient PACU set electric EPD to 3.0 W/ft^2.",
               "Outpatient PACU had no ventilation specification, one has been created.",
               "Outpatient PACU set ventilation per area to 0.533 cfm/ft^2.",
               "Outpatient PACU set ventilation per person to 5.0 cfm/person.",
               "Outpatient PACU set occupancy schedule to OutPatientHealthCare BLDG_OCC_SCH.",
               "Outpatient PACU set occupant activity schedule to OutPatientHealthCare ACTIVITY_SCH.",
               "Outpatient PACU set lighting schedule to OutPatientHealthCare BLDG_LIGHT_EXAM_SCH.",
               "Outpatient PACU set electric equipment schedule to OutPatientHealthCare BLDG_EQUIP_SCH_BASE.",
               "Outpatient PACU set infiltration schedule to OutPatientHealthCare INFIL_SCH.",
               "Outpatient DresingRoom had no ventilation specification, one has been created.",
               "Outpatient MRI had no people, one has been created.",
               "Outpatient MRI set occupancy to 20.02 people/1000 ft^2.",
               "Outpatient MRI had no lights, one has been created.",
               "Outpatient MRI set LPD to 0.4 W/ft^2.",
               "Outpatient MRI had no electric equipment, one has been created.",
               "Outpatient MRI set electric EPD to 10.0 W/ft^2.",
               "Outpatient MRI had no ventilation specification, one has been created.",
               "Outpatient MRI set ventilation per area to 0.3 cfm/ft^2.",
               "Outpatient MRI set occupancy schedule to OutPatientHealthCare BLDG_OCC_SCH.",
               "Outpatient MRI set occupant activity schedule to OutPatientHealthCare ACTIVITY_SCH.",
               "Outpatient MRI set lighting schedule to OutPatientHealthCare BLDG_LIGHT_SCH.",
               "Outpatient MRI set electric equipment schedule to OutPatientHealthCare BLDG_EQUIP_SCH_BASE.",
               "Outpatient MRI set infiltration schedule to OutPatientHealthCare INFIL_SCH.",
               "Outpatient LockerRoom had no people, one has been created.",
               "Outpatient LockerRoom set occupancy to 15.01 people/1000 ft^2.",
               "Outpatient LockerRoom had no lights, one has been created.",
               "Outpatient LockerRoom set LPD to 0.8 W/ft^2.",
               "Outpatient LockerRoom had no electric equipment, one has been created.",
               "Outpatient LockerRoom set electric EPD to 3.0 W/ft^2.",
               "Outpatient LockerRoom had no ventilation specification, one has been created.",
               "Outpatient LockerRoom set ventilation per person to 15.0 cfm/person.",
               "Outpatient LockerRoom set occupancy schedule to OutPatientHealthCare BLDG_OCC_SCH.",
               "Outpatient LockerRoom set occupant activity schedule to OutPatientHealthCare ACTIVITY_SCH.",
               "Outpatient LockerRoom set lighting schedule to OutPatientHealthCare BLDG_LIGHT_SCH.",
               "Outpatient LockerRoom set electric equipment schedule to OutPatientHealthCare BLDG_EQUIP_SCH_BASE.",
               "Outpatient LockerRoom set infiltration schedule to OutPatientHealthCare INFIL_SCH.",
               "Outpatient Conference had no people, one has been created.",
               "Outpatient Conference set occupancy to 49.95 people/1000 ft^2.",
               "Outpatient Conference had no lights, one has been created.",
               "Outpatient Conference set LPD to 1.3 W/ft^2.",
               "Outpatient Conference had no electric equipment, one has been created.",
               "Outpatient Conference set electric EPD to 1.0 W/ft^2.",
               "Outpatient Conference had no ventilation specification, one has been created.",
               "Outpatient Conference set ventilation per person to 20.0 cfm/person.",
               "Outpatient Conference set occupancy schedule to OutPatientHealthCare BLDG_OCC_SCH.",
               "Outpatient Conference set occupant activity schedule to OutPatientHealthCare ACTIVITY_SCH.",
               "Outpatient Conference set lighting schedule to OutPatientHealthCare BLDG_LIGHT_SCH.",
               "Outpatient Conference set electric equipment schedule to OutPatientHealthCare BLDG_EQUIP_SCH_BASE.",
               "Outpatient Conference set infiltration schedule to OutPatientHealthCare INFIL_SCH.",
               "Outpatient Office had no people, one has been created.",
               "Outpatient Office set occupancy to 5.0 people/1000 ft^2.",
               "Outpatient Office had no lights, one has been created.",
               "Outpatient Office set LPD to 1.1 W/ft^2.",
               "Outpatient Office had no electric equipment, one has been created.",
               "Outpatient Office set electric EPD to 1.1 W/ft^2.",
               "Outpatient Office had no ventilation specification, one has been created.",
               "Outpatient Office set ventilation per person to 20.0 cfm/person.",
               "Outpatient Office set occupancy schedule to OutPatientHealthCare BLDG_OCC_SCH.",
               "Outpatient Office set occupant activity schedule to OutPatientHealthCare ACTIVITY_SCH.",
               "Outpatient Office set lighting schedule to OutPatientHealthCare BLDG_LIGHT_OFFICE_SCH.",
               "Outpatient Office set electric equipment schedule to OutPatientHealthCare BLDG_EQUIP_SCH_BASE.",
               "Outpatient Office set infiltration schedule to OutPatientHealthCare INFIL_SCH.",
               "Outpatient MedGas had no lights, one has been created.",
               "Outpatient MedGas set LPD to 0.9 W/ft^2.",
               "Outpatient MedGas had no electric equipment, one has been created.",
               "Outpatient MedGas set electric EPD to 0.1 W/ft^2.",
               "Outpatient MedGas had no ventilation specification, one has been created.",
               "Outpatient MedGas set ventilation per area to 0.15 cfm/ft^2.",
               "Outpatient MedGas set occupancy schedule to OutPatientHealthCare BLDG_OCC_SCH.",
               "Outpatient MedGas set occupant activity schedule to OutPatientHealthCare ACTIVITY_SCH.",
               "Outpatient MedGas set lighting schedule to OutPatientHealthCare BLDG_LIGHT_SCH.",
               "Outpatient MedGas set electric equipment schedule to OutPatientHealthCare BLDG_EQUIP_SCH_BASE.",
[...]
               "For Building Story 8 ThermalZone: DCV is not required since the occupant density is 10 people/1000 ft2, but the minimum occupant density is 100 people/1000 ft2.",
               "For 1 Zone VAV 8: Optimum start is required since design flow rate of 37067 cfm exceeds the limit of 10000 cfm.",
               "For 1 Zone VAV 8: Optimum start control enabled.",
               "For 1 Zone VAV 9, ERV not required based on 14% OA flow, design supply air flow of 27512cfm, and climate zone .",
               "For 1 Zone VAV 9 Fan: Set fan curve coefficients to reflect control type of 'Single Zone VAV Fan'.",
               "For 1 Zone VAV 9: Single zone controls not applicable because no DX cooling.",
               "For Building Story 9 ThermalZone: DCV is not required since the occupant density is 5 people/1000 ft2, but the minimum occupant density is 100 people/1000 ft2.",
               "For 1 Zone VAV 9: Annual occupied hours = 5374 hr/yr, assuming a 0.15 occupancy threshold.  This schedule will be used as the HVAC operation schedule.",
               "For 1 Zone VAV 9: Motorized OA damper is required because the building has 10 stories, >= the minimum of 3 stories for climate zone , and the system OA intake of 3830 cfm is >= the minimum threshold of 0 cfm.",
               "For 1 Zone VAV 9: Setting motorized OA damper schedule to 1 Zone VAV 9 Occ Sch.",
               "For Building Story 9 ThermalZone: DCV is not required since the occupant density is 5 people/1000 ft2, but the minimum occupant density is 100 people/1000 ft2.",
               "For 1 Zone VAV 9: Optimum start is required since design flow rate of 27512 cfm exceeds the limit of 10000 cfm.",
               "For 1 Zone VAV 9: Optimum start control enabled.",
               "For 1 Zone VAV 1 Fan: motor nameplate = 100HP, motor eff = 94.5%.",
               "For 1 Zone VAV 2 Fan: motor nameplate = 40HP, motor eff = 93.0%.",
               "For 1 Zone VAV 3 Fan: motor nameplate = 60HP, motor eff = 93.6%.",
               "For 1 Zone VAV 4 Fan: motor nameplate = 40HP, motor eff = 93.0%.",
               "For 1 Zone VAV 5 Fan: motor nameplate = 75HP, motor eff = 94.1%.",
               "For 1 Zone VAV 6 Fan: motor nameplate = 30HP, motor eff = 92.4%.",
               "For 1 Zone VAV 7 Fan: motor nameplate = 100HP, motor eff = 94.5%.",
               "For 1 Zone VAV 8 Fan: motor nameplate = 60HP, motor eff = 93.6%.",
               "For 1 Zone VAV 9 Fan: motor nameplate = 40HP, motor eff = 93.0%.",
               "For 1 Zone VAV Fan: motor nameplate = 20HP, motor eff = 91.0%.",
               "For Zone Outpatient Anesthesia A  - Story Ground Exhaust Fan: motor eff = 29.0%; assumed to represent several < 1 HP motors.",
               "For Zone Outpatient Anesthesia B  - Story Ground Exhaust Fan: motor eff = 29.0%; assumed to represent several < 1 HP motors.",
               "For Zone Outpatient Anesthesia C  - Story Ground Exhaust Fan: motor eff = 29.0%; assumed to represent several < 1 HP motors.",
               "For Zone Outpatient MRI A  - Story Ground Exhaust Fan: motor eff = 29.0%; assumed to represent several < 1 HP motors.",
               "For Zone Outpatient MRI B  - Story Ground Exhaust Fan: motor eff = 29.0%; assumed to represent several < 1 HP motors.",
               "For Zone Outpatient MRI C  - Story Ground Exhaust Fan: motor eff = 29.0%; assumed to represent several < 1 HP motors.",
               "For Zone Outpatient MRI_Control A  - Story Ground Exhaust Fan: motor eff = 29.0%; assumed to represent several < 1 HP motors.",
               "For Zone Outpatient MRI_Control B  - Story Ground Exhaust Fan: motor eff = 29.0%; assumed to represent several < 1 HP motors.",
               "For Zone Outpatient MRI_Control C  - Story Ground Exhaust Fan: motor eff = 29.0%; assumed to represent several < 1 HP motors.",
               "For Zone Outpatient Soil Work A  - Story Ground Exhaust Fan: motor eff = 29.0%; assumed to represent several < 1 HP motors.",
               "For Zone Outpatient Soil Work B  - Story Ground Exhaust Fan: motor eff = 29.0%; assumed to represent several < 1 HP motors.",
               "For Zone Outpatient Soil Work C  - Story Ground Exhaust Fan: motor eff = 29.0%; assumed to represent several < 1 HP motors.",
               "For Zone Outpatient Toilet A  - Story Mid Exhaust Fan: motor eff = 29.0%; assumed to represent several < 1 HP motors.",
               "For Zone Outpatient Toilet A end_a - Story Mid Exhaust Fan: motor eff = 29.0%; assumed to represent several < 1 HP motors.",
               "For Zone Outpatient Toilet B  - Story Mid Exhaust Fan: motor eff = 29.0%; assumed to represent several < 1 HP motors.",
               "For Zone Outpatient Toilet B end_a - Story Mid Exhaust Fan: motor eff = 29.0%; assumed to represent several < 1 HP motors.",
               "For Zone Outpatient Toilet C  - Story Mid Exhaust Fan: motor eff = 29.0%; assumed to represent several < 1 HP motors.",
               "For Zone Outpatient Toilet C end_a - Story Mid Exhaust Fan: motor eff = 29.0%; assumed to represent several < 1 HP motors.",
               "For Chilled Water Loop Primary Pump: brake hp = 12.35HP, motor nameplate = 15.0HP, motor eff = 91.0%.",
               "For Condenser Water Loop Constant Pump: brake hp = 49.05HP, motor nameplate = 50.0HP, motor eff = 93.0%.",
               "For Outpatient Shared Service Water Loop Circulator Pump: brake hp = 0.03HP, motor nameplate = 1.0HP, motor eff = 82.5%.",
               "For Chilled Water Loop Secondary Pump: brake hp = 37.04HP, motor nameplate = 40.0HP, motor eff = 93.0%.",
               "For Hot Water Loop Pump: brake hp = 19.88HP, motor nameplate = 20.0HP, motor eff = 91.0%.",
               "For 90.1-2004: 90.1-2004 WaterCooled  Rotary Screw Chiller 0 1073tons 0.6kW/ton: WaterCooled  Rotary Screw Capacity = 1073tons; COP = 5.5 (0.6kW/ton)",
               "For 90.1-2004: Boiler: Gas Hot Water Capacity = 10058kBtu/hr; Thermal Efficiency = 0.75",
               "For 90.1-2004: 555gal NaturalGas Water Heater - 555kBtu/hr 0.803 Therm Eff; thermal efficiency = 0.803, skin-loss UA = 28Btu/hr",
               "For Propeller or Axial TwoSpeed Fan Open Cooling Tower, design water flow = 3044 gpm, minimum performance = 38.2 gpm/hp (nameplate).",
               "For Propeller or Axial TwoSpeed Fan Open Cooling Tower, allowed fan motor nameplate hp = 79.7 hp, fan brake horsepower = 71.7, and fan motor actual power = 76.2 hp (56828 W) at 0.941 motor efficiency.",
               "Finished applying HVAC efficiency standards."
            ],
            "step_initial_condition" : "The building started with 2305 objects.",
            "step_result" : "Success",
            "step_values" : [
               {
                  "name" : "template",
                  "value" : "90.1-2004"
               },
               {
                  "name" : "system_type",
                  "value" : "Inferred"
               },
               {
                  "name" : "hvac_delivery_type",
                  "value" : "Forced Air"
               },
               {
                  "name" : "htg_src",
                  "value" : "NaturalGas"
               },
               {
                  "name" : "clg_src",
                  "value" : "Electricity"
               },
               {
                  "name" : "kitchen_makeup",
                  "value" : "Adjacent"
               },
               {
                  "name" : "exterior_lighting_zone",
                  "value" : "3 - All Other Areas"
               },
               {
                  "name" : "add_constructions",
                  "value" : false
               },
               {
                  "name" : "add_space_type_loads",
                  "value" : false
               },
               {
                  "name" : "add_elevators",
                  "value" : false
               },
               {
                  "name" : "add_exterior_lights",
                  "value" : false
               },
               {
                  "name" : "onsite_parking_fraction",
                  "value" : 1
               },
               {
                  "name" : "add_exhaust",
                  "value" : false
               },
               {
                  "name" : "add_swh",
                  "value" : false
               },
               {
                  "name" : "add_thermostat",
                  "value" : true
               },
               {
                  "name" : "add_hvac",
                  "value" : true
               },
               {
                  "name" : "remove_objects",
                  "value" : false
               },
               {
                  "name" : "use_upstream_args",
                  "value" : false
               },
               {
                  "name" : "enable_dst",
                  "value" : true
               }
            ],
            "step_warnings" : [
               "[openstudio.standards.Model] Find object search criteria returned 2 results, the first one will be returned. Called from /Users/tkwasnik/github/urbanopt-example-geojson-reopt-project/.bundle/install/ruby/2.2.0/gems/openstudio-standards-0.2.10/lib/openstudio-standards/prototypes/common/objects/Prototype.Model.hvac.rb:491:in `model_typical_hvac_system_type'. \n Search criteria: \n {\"template\"=>\"90.1-2004\", \"building_category\"=>\"Nonresidential\"}, capacity =  \n  All results: \n {\"template\"=>\"90.1-2004\", \"building_category\"=>\"Nonresidential\", \"minimum_floors\"=>0.0, \"maximum_floors\"=>999.0, \"minimum_area\"=>150000.0, \"maximum_area\"=>99999999.0, \"size_category\"=>\"nonres_lg\"}\n{\"template\"=>\"90.1-2004\", \"building_category\"=>\"Nonresidential\", \"minimum_floors\"=>6.0, \"maximum_floors\"=>999.0, \"minimum_area\"=>0.0, \"maximum_area\"=>99999999.0, \"size_category\"=>\"nonres_lg\"}",
               "[openstudio.model.Model] The run completed but had the following severe errors: InitFans: Fan=",
               "[openstudio.standards.AirLoopHVAC] Cannot find economizer limits for 90.1-2004, , assuming no economizer required.",
               "[openstudio.standards.AirLoopHVAC] Cannot find economizer limits for 90.1-2004, , assuming no economizer required.",
               "[openstudio.standards.AirLoopHVAC] Cannot find economizer limits for 90.1-2004, , assuming no economizer required.",
               "[openstudio.standards.AirLoopHVAC] Cannot find economizer limits for 90.1-2004, , assuming no economizer required.",
               "[openstudio.standards.AirLoopHVAC] Cannot find economizer limits for 90.1-2004, , assuming no economizer required.",
               "[openstudio.standards.AirLoopHVAC] Cannot find economizer limits for 90.1-2004, , assuming no economizer required.",
               "[openstudio.standards.AirLoopHVAC] Cannot find economizer limits for 90.1-2004, , assuming no economizer required.",
               "[openstudio.standards.AirLoopHVAC] Cannot find economizer limits for 90.1-2004, , assuming no economizer required.",
               "[openstudio.standards.AirLoopHVAC] Cannot find economizer limits for 90.1-2004, , assuming no economizer required.",
               "[openstudio.standards.AirLoopHVAC] Cannot find economizer limits for 90.1-2004, , assuming no economizer required."
            ]
         }
      },
      {
         "arguments" : {
            "__SKIP__" : true,
            "r_value" : 10
         },
         "measure_dir_name" : "IncreaseInsulationRValueForExteriorWalls",
         "result" : {
            "completed_at" : "20191231T195605Z",
            "measure_class_name" : "IncreaseInsulationRValueForExteriorWalls",
            "measure_display_name" : "Increase R-value of Insulation for Exterior Walls to a Specific Value",
            "measure_name" : "increase_insulation_r_value_for_exterior_walls",
            "measure_taxonomy" : "Envelope.Opaque",
            "measure_type" : "ModelMeasure",
            "measure_uid" : "3fdf9c39-d305-449b-a4b5-077166af5a67",
            "measure_version_id" : "185d23d1-67c9-435c-97d2-f28e7f80632b",
            "measure_version_modified" : "20191029T231254Z",
            "measure_xml_checksum" : "0F858D9E",
            "started_at" : "20191231T195605Z",
            "stderr" : "",
            "stdout" : "",
            "step_errors" : [],
            "step_files" : [],
            "step_info" : [],
            "step_result" : "Skip",
            "step_values" : [],
            "step_warnings" : []
         }
      },
      {
         "arguments" : {
            "__SKIP__" : true,
            "elecequip_power_reduction_percent" : 20
         },
         "measure_dir_name" : "ReduceElectricEquipmentLoadsByPercentage",
         "result" : {
            "completed_at" : "20191231T195605Z",
            "measure_class_name" : "ReduceElectricEquipmentLoadsByPercentage",
            "measure_display_name" : "Reduce Electric Equipment Loads by Percentage",
            "measure_name" : "reduce_electric_equipment_loads_by_percentage",
            "measure_taxonomy" : "Equipment.Electric Equipment",
            "measure_type" : "ModelMeasure",
            "measure_uid" : "0902e302-70db-4339-99b0-17f08bc93629",
            "measure_version_id" : "7be9778a-f317-46fb-b48a-4159ce1ec158",
            "measure_version_modified" : "20191029T231304Z",
            "measure_xml_checksum" : "F9A5B8F0",
            "started_at" : "20191231T195605Z",
            "stderr" : "",
            "stdout" : "",
            "step_errors" : [],
            "step_files" : [],
            "step_info" : [],
            "step_result" : "Skip",
            "step_values" : [],
            "step_warnings" : []
         }
      },
      {
         "arguments" : {
            "__SKIP__" : true,
            "lighting_power_reduction_percent" : 30
         },
         "measure_dir_name" : "ReduceLightingLoadsByPercentage",
         "result" : {
            "completed_at" : "20191231T195605Z",
            "measure_class_name" : "ReduceLightingLoadsByPercentage",
            "measure_display_name" : "Reduce Lighting Loads by Percentage",
            "measure_name" : "reduce_lighting_loads_by_percentage",
            "measure_taxonomy" : "Electric Lighting.Lighting Equipment",
            "measure_type" : "ModelMeasure",
            "measure_uid" : "791f3404-a28b-4a80-ba3f-e15b339e39ea",
            "measure_version_id" : "1da578d2-2b29-4536-9382-08364c5d5219",
            "measure_version_modified" : "20191029T231304Z",
            "measure_xml_checksum" : "293730A7",
            "started_at" : "20191231T195605Z",
            "stderr" : "",
            "stdout" : "",
            "step_errors" : [],
            "step_files" : [],
            "step_info" : [],
            "step_result" : "Skip",
            "step_values" : [],
            "step_warnings" : []
         }
      },
      {
         "arguments" : {
            "feature_id" : "8",
            "feature_name" : "Hospital 1",
            "feature_type" : "Building"
         },
         "measure_dir_name" : "default_feature_reports",
         "result" : {
            "completed_at" : "20191231T200049Z",
            "measure_class_name" : "DefaultFeatureReports",
            "measure_display_name" : "DefaultFeatureReports",
            "measure_name" : "default_feature_reports",
            "measure_taxonomy" : "Reporting.QAQC",
            "measure_type" : "ReportingMeasure",
            "measure_uid" : "9ee3135a-8070-4408-bfa1-b75fecf9dd4f",
            "measure_version_id" : "803f9d76-a088-489d-88d3-6f3a5ae50d8a",
            "measure_version_modified" : "20191030T020950Z",
            "measure_xml_checksum" : "FB304155",
            "started_at" : "20191231T200020Z",
            "stderr" : "",
            "stdout" : "",
            "step_errors" : [],
            "step_files" : [
               "/Users/tkwasnik/github/urbanopt-example-geojson-reopt-project/run/baseline_scenario/8/010_default_feature_reports/default_feature_reports.json",
               "/Users/tkwasnik/github/urbanopt-example-geojson-reopt-project/run/baseline_scenario/8/010_default_feature_reports/default_feature_reports.csv"
            ],
            "step_final_condition" : "Default Feature Reports generated successfully.",
            "step_info" : [
               "TIMESERIES: Electricity:Facility",
               "KEY VALUES: [\"\"]",
               "!! TIMESERIES NAME: Electricity:Facility AND key_value: ",
               "First timeseries",
               "TIMESERIES: ElectricityProduced:Facility",
               "KEY VALUES: []",
               "!! TIMESERIES NAME: ElectricityProduced:Facility AND key_value: ",
               "Is NOT Initialized",
               "TIMESERIES: Gas:Facility",
               "KEY VALUES: [\"\"]",
               "!! TIMESERIES NAME: Gas:Facility AND key_value: ",
               "Is Initialized",
               "TIMESERIES: DistrictCooling:Facility",
               "KEY VALUES: []",
               "!! TIMESERIES NAME: DistrictCooling:Facility AND key_value: ",
               "Is NOT Initialized",
               "TIMESERIES: DistrictHeating:Facility",
               "KEY VALUES: []",
               "!! TIMESERIES NAME: DistrictHeating:Facility AND key_value: ",
               "Is NOT Initialized",
               "TIMESERIES: District Cooling Chilled Water Rate",
               "KEY VALUES: []",
               "!! TIMESERIES NAME: District Cooling Chilled Water Rate AND key_value: ",
               "Is NOT Initialized",
               "TIMESERIES: District Cooling Mass Flow Rate",
               "KEY VALUES: []",
               "!! TIMESERIES NAME: District Cooling Mass Flow Rate AND key_value: ",
               "Is NOT Initialized",
               "TIMESERIES: District Cooling Inlet Temperature",
               "KEY VALUES: []",
               "!! TIMESERIES NAME: District Cooling Inlet Temperature AND key_value: ",
               "Is NOT Initialized",
               "TIMESERIES: District Cooling Outlet Temperature",
               "KEY VALUES: []",
               "!! TIMESERIES NAME: District Cooling Outlet Temperature AND key_value: ",
               "Is NOT Initialized",
               "TIMESERIES: District Heating Hot Water Rate",
               "KEY VALUES: []",
               "!! TIMESERIES NAME: District Heating Hot Water Rate AND key_value: ",
               "Is NOT Initialized",
               "TIMESERIES: District Heating Mass Flow Rate",
               "KEY VALUES: []",
               "!! TIMESERIES NAME: District Heating Mass Flow Rate AND key_value: ",
               "Is NOT Initialized",
               "TIMESERIES: District Heating Inlet Temperature",
               "KEY VALUES: []",
               "!! TIMESERIES NAME: District Heating Inlet Temperature AND key_value: ",
               "Is NOT Initialized",
               "TIMESERIES: District Heating Outlet Temperature",
               "KEY VALUES: []",
               "!! TIMESERIES NAME: District Heating Outlet Temperature AND key_value: ",
               "Is NOT Initialized",
               "new final_timeseries_names size: 13"
            ],
            "step_result" : "Success",
            "step_values" : [
               {
                  "name" : "feature_id",
                  "value" : "8"
               },
               {
                  "name" : "feature_name",
                  "value" : "Hospital 1"
               },
               {
                  "name" : "feature_type",
                  "value" : "Building"
               },
               {
                  "name" : "reporting_frequency",
                  "value" : "Hourly"
               }
            ],
            "step_warnings" : []
         }
      }
   ],
   "updated_at" : "20191231T200053Z",
   "weather_file" : null
}
