Program Version,EnergyPlus, Version 9.1.0-08d2e308bb, YMD=2019.12.31 13:02
! <Version>, Version ID
 Version, 9.1
! <Timesteps per Hour>, #TimeSteps, Minutes per TimeStep {minutes}
 Timesteps per Hour,  1, 60
! <System Convergence Limits>, Minimum System TimeStep {minutes}, Max HVAC Iterations, Minimum Plant Iterations, Maximum Plant Iterations
 System Convergence Limits, 1, 20, 2, 8
! <Simulation Control>, Do Zone Sizing, Do System Sizing, Do Plant Sizing, Do Design Days, Do Weather Simulation, Do HVAC Sizing Simulation
 Simulation Control, Yes, Yes, Yes, Yes, No, No
! <Output Reporting Tolerances>, Tolerance for Time Heating Setpoint Not Met, Tolerance for Zone Cooling Setpoint Not Met Time
 Output Reporting Tolerances, 0.200, 0.200, 
! <Site:GroundTemperature:BuildingSurface>,Jan{C},Feb{C},Mar{C},Apr{C},May{C},Jun{C},Jul{C},Aug{C},Sep{C},Oct{C},Nov{C},Dec{C}
 Site:GroundTemperature:BuildingSurface,  19.74,  19.69,  19.85,  20.06,  20.27,  20.46,  20.61,  20.65,  20.60,  20.38,  20.19,  19.90
! <Site:GroundTemperature:FCfactorMethod>,Jan{C},Feb{C},Mar{C},Apr{C},May{C},Jun{C},Jul{C},Aug{C},Sep{C},Oct{C},Nov{C},Dec{C}
 Site:GroundTemperature:FCfactorMethod,  -2.87,  -0.64,   3.71,   7.83,  15.62,  19.72,  20.85,  18.77,  13.96,   7.98,   2.08,  -1.81
! <Site:GroundTemperature:Shallow>,Jan{C},Feb{C},Mar{C},Apr{C},May{C},Jun{C},Jul{C},Aug{C},Sep{C},Oct{C},Nov{C},Dec{C}
 Site:GroundTemperature:Shallow,  13.00,  13.00,  13.00,  13.00,  13.00,  13.00,  13.00,  13.00,  13.00,  13.00,  13.00,  13.00
! <Site:GroundTemperature:Deep>,Jan{C},Feb{C},Mar{C},Apr{C},May{C},Jun{C},Jul{C},Aug{C},Sep{C},Oct{C},Nov{C},Dec{C}
 Site:GroundTemperature:Deep,  16.00,  16.00,  16.00,  16.00,  16.00,  16.00,  16.00,  16.00,  16.00,  16.00,  16.00,  16.00
! <Site:GroundReflectance>,Jan{dimensionless},Feb{dimensionless},Mar{dimensionless},Apr{dimensionless},May{dimensionless},Jun{dimensionless},Jul{dimensionless},Aug{dimensionless},Sep{dimensionless},Oct{dimensionless},Nov{dimensionless},Dec{dimensionless}
 Site:GroundReflectance,  0.20,  0.20,  0.20,  0.20,  0.20,  0.20,  0.20,  0.20,  0.20,  0.20,  0.20,  0.20
! <Site:GroundReflectance:SnowModifier>, Normal, Daylighting {dimensionless}
 Site:GroundReflectance:SnowModifier,   1.000,   1.000
! <Site:GroundReflectance:Snow>,Jan{dimensionless},Feb{dimensionless},Mar{dimensionless},Apr{dimensionless},May{dimensionless},Jun{dimensionless},Jul{dimensionless},Aug{dimensionless},Sep{dimensionless},Oct{dimensionless},Nov{dimensionless},Dec{dimensionless}
 Site:GroundReflectance:Snow,  0.20,  0.20,  0.20,  0.20,  0.20,  0.20,  0.20,  0.20,  0.20,  0.20,  0.20,  0.20
! <Site:GroundReflectance:Snow:Daylighting>,Jan{dimensionless},Feb{dimensionless},Mar{dimensionless},Apr{dimensionless},May{dimensionless},Jun{dimensionless},Jul{dimensionless},Aug{dimensionless},Sep{dimensionless},Oct{dimensionless},Nov{dimensionless},Dec{dimensionless}
 Site:GroundReflectance:Snow:Daylighting,  0.20,  0.20,  0.20,  0.20,  0.20,  0.20,  0.20,  0.20,  0.20,  0.20,  0.20,  0.20
! <Environment:Weather Station>,Wind Sensor Height Above Ground {m},Wind Speed Profile Exponent {},Wind Speed Profile Boundary Layer Thickness {m},Air Temperature Sensor Height Above Ground {m},Wind Speed Modifier Coefficient-Internal,Temperature Modifier Coefficient-Internal
Environment:Weather Station,10.000,0.140,270.000,1.500,1.586,9.750E-003
! <Site:Location>, Location Name, Latitude {N+/S- Deg}, Longitude {E+/W- Deg},  Time Zone Number {GMT+/-}, Elevation {m},  Standard Pressure at Elevation {Pa}, Standard RhoAir at Elevation
Site:Location,Buffalo Niagara Intl Ap NY USA TMY3 WMO#=725280,42.93,-78.73,-5.00,215.00,98769,1.1739
! <Site Water Mains Temperature Information>,Calculation Method{},Water Mains Temperature Schedule Name{},Annual Average Outdoor Air Temperature{C},Maximum Difference In Monthly Average Outdoor Air Temperatures{deltaC},Fixed Default Water Mains Temperature{C}
Site Water Mains Temperature Information,Correlation,NA,8.97,26.20,NA
! <Building Information>, Building Name,North Axis {deg},Terrain,  Loads Convergence Tolerance Value,Temperature Convergence Tolerance Value,  Solar Distribution,Maximum Number of Warmup Days,Minimum Number of Warmup Days
 Building Information,Mixed use 2,0.000,City,4.00000E-002,0.40000,FullExterior,25,6
! <Inside Convection Algorithm>, Algorithm {Simple | TARP | CeilingDiffuser | AdaptiveConvectionAlgorithm}
Inside Convection Algorithm,TARP
! <Outside Convection Algorithm>, Algorithm {SimpleCombined | TARP | MoWitt | DOE-2 | AdaptiveConvectionAlgorithm}
Outside Convection Algorithm,DOE-2
! <Sky Radiance Distribution>, Value {Anisotropic}
Sky Radiance Distribution,Anisotropic
! <Zone Air Solution Algorithm>, Value {ThirdOrderBackwardDifference | AnalyticalSolution | EulerMethod}
 Zone Air Solution Algorithm, ThirdOrderBackwardDifference
! <Zone Air Carbon Dioxide Balance Simulation>, Simulation {Yes/No}, Carbon Dioxide Concentration
 Zone Air Carbon Dioxide Balance Simulation, No,N/A
! <Zone Air Generic Contaminant Balance Simulation>, Simulation {Yes/No}, Generic Contaminant Concentration
 Zone Air Generic Contaminant Balance Simulation, No,N/A
! <Zone Air Mass Flow Balance Simulation>, Enforce Mass Balance, Adjust Zone Mixing, Adjust Zone Infiltration {AddInfiltration | AdjustInfiltration | None}, Infiltration Zones {MixingSourceZonesOnly | AllZones}
 Zone Air Mass Flow Balance Simulation, No,N/A,N/A,N/A
! <HVACSystemRootFindingAlgorithm>, Value {RegulaFalsi | Bisection | BisectionThenRegulaFalsi | RegulaFalsiThenBisection}
 HVACSystemRootFindingAlgorithm, RegulaFalsi
! <Environment:Site Atmospheric Variation>,Wind Speed Profile Exponent {},Wind Speed Profile Boundary Layer Thickness {m},Air Temperature Gradient Coefficient {K/m}
Environment:Site Atmospheric Variation,0.330,460.000,6.500000E-003
! <Surface Geometry>,Starting Corner,Vertex Input Direction,Coordinate System,Daylight Reference Point Coordinate System,Rectangular (Simple) Surface Coordinate System
 Surface Geometry,UpperLeftCorner,Counterclockwise,RelativeCoordinateSystem,RelativeCoordinateSystem,RelativeToZoneOrigin
! <Surface Heat Transfer Algorithm>, Value {CTF - ConductionTransferFunction | EMPD - MoisturePenetrationDepthConductionTransferFunction | CondFD - ConductionFiniteDifference | HAMT - CombinedHeatAndMoistureFiniteElement} - Description,Inside Surface Max Temperature Limit{C}, Surface Convection Coefficient Lower Limit {W/m2-K}, Surface Convection Coefficient Upper Limit {W/m2-K}
Surface Heat Transfer Algorithm, CTF - ConductionTransferFunction,200,0.10,1000.0
! <Shading Summary>, Number of Fixed Detached Shades, Number of Building Detached Shades, Number of Attached Shades
 Shading Summary,0,80,0
! <Zone Summary>, Number of Zones, Number of Zone Surfaces, Number of SubSurfaces
 Zone Summary,8,112,48
! <Zone Information>,Zone Name,North Axis {deg},Origin X-Coordinate {m},Origin Y-Coordinate {m},Origin Z-Coordinate {m},Centroid X-Coordinate {m},Centroid Y-Coordinate {m},Centroid Z-Coordinate {m},Type,Zone Multiplier,Zone List Multiplier,Minimum X {m},Maximum X {m},Minimum Y {m},Maximum Y {m},Minimum Z {m},Maximum Z {m},Ceiling Height {m},Volume {m3},Zone Inside Convection Algorithm {Simple-Detailed-CeilingDiffuser-TrombeWall},Zone Outside Convection Algorithm {Simple-Detailed-Tarp-MoWitt-DOE-2-BLAST}, Floor Area {m2},Exterior Gross Wall Area {m2},Exterior Net Wall Area {m2},Exterior Window Area {m2}, Number of Surfaces, Number of SubSurfaces, Number of Shading SubSurfaces,  Part of Total Building Area
 Zone Information, BUILDING STORY 1 THERMALZONE,0.0,0.00,0.00,0.00,85.89,136.75,1.50,1,1,1,-5.35E-011,152.15,3.35E-004,248.23,0.00,3.00,3.00,44513.73,TARP,DOE-2,14837.91,2135.15,1494.60,640.54,8,6,0,Yes
 Zone Information, BUILDING STORY 2 THERMALZONE,0.0,0.00,0.00,0.00,85.89,136.75,4.50,1,1,1,-5.35E-011,152.15,3.35E-004,248.23,3.00,6.00,3.00,44513.73,TARP,DOE-2,14837.91,2135.15,1494.60,640.54,8,6,0,Yes
 Zone Information, BUILDING STORY 3 THERMALZONE,0.0,0.00,0.00,0.00,85.89,136.75,7.50,1,1,1,-5.35E-011,152.15,3.35E-004,248.23,6.00,9.00,3.00,44513.73,TARP,DOE-2,14837.91,2135.15,1494.60,640.54,8,6,0,Yes
 Zone Information, BUILDING STORY 4 THERMALZONE,0.0,0.00,0.00,0.00,85.89,136.75,10.50,1,1,1,-5.35E-011,152.15,3.35E-004,248.23,9.00,12.00,3.00,44513.73,TARP,DOE-2,14837.91,2135.15,1494.60,640.54,8,6,0,Yes
 Zone Information, BUILDING STORY 5 THERMALZONE,0.0,0.00,0.00,0.00,85.89,136.75,13.50,1,1,1,-5.35E-011,152.15,3.35E-004,248.23,12.00,15.00,3.00,44513.73,TARP,DOE-2,14837.91,2135.15,1494.60,640.54,8,6,0,Yes
 Zone Information, BUILDING STORY 6 THERMALZONE,0.0,0.00,0.00,0.00,85.89,136.75,16.50,1,1,1,-5.35E-011,152.15,3.35E-004,248.23,15.00,18.00,3.00,44513.73,TARP,DOE-2,14837.91,2135.15,1494.60,640.54,8,6,0,Yes
 Zone Information, BUILDING STORY 7 THERMALZONE,0.0,0.00,0.00,0.00,85.89,136.75,19.50,1,1,1,-5.35E-011,152.15,3.35E-004,248.23,18.00,21.00,3.00,44513.73,TARP,DOE-2,14837.91,2135.15,1494.60,640.54,8,6,0,Yes
 Zone Information, BUILDING STORY 8 THERMALZONE,0.0,0.00,0.00,0.00,85.89,136.75,22.50,1,1,1,-5.35E-011,152.15,3.35E-004,248.23,21.00,24.00,3.00,44513.73,TARP,DOE-2,14837.91,2135.15,1494.60,640.54,8,6,0,Yes
! <Zone Internal Gains Nominal>,Zone Name, Floor Area {m2},# Occupants,Area per Occupant {m2/person},Occupant per Area {person/m2},Interior Lighting {W/m2},Electric Load {W/m2},Gas Load {W/m2},Other Load {W/m2},Hot Water Eq {W/m2},Steam Equipment {W/m2},Sum Loads per Area {W/m2},Outdoor Controlled Baseboard Heat
 Zone Internal Gains Nominal, BUILDING STORY 1 THERMALZONE,14837.91,605.7,24.498,4.082E-002,11.673,6.955,0.000,0.000,0.000,0.000,18.628,No
 Zone Internal Gains Nominal, BUILDING STORY 2 THERMALZONE,14837.91,11180.0,1.327,0.753,22.604,64.928,0.000,0.000,0.000,0.000,87.532,No
 Zone Internal Gains Nominal, BUILDING STORY 3 THERMALZONE,14837.91,5391.3,2.752,0.363,16.731,33.185,0.000,0.000,0.000,0.000,49.917,No
 Zone Internal Gains Nominal, BUILDING STORY 4 THERMALZONE,14837.91,798.6,18.581,5.382E-002,10.764,8.073,0.000,0.000,0.000,0.000,18.837,No
 Zone Internal Gains Nominal, BUILDING STORY 5 THERMALZONE,14837.91,1256.4,11.810,8.467E-002,15.906,4.473,0.000,0.000,0.000,0.000,20.379,No
 Zone Internal Gains Nominal, BUILDING STORY 6 THERMALZONE,14837.91,1192.0,12.448,8.033E-002,21.977,75.815,116.166,0.000,0.000,0.000,213.958,No
 Zone Internal Gains Nominal, BUILDING STORY 7 THERMALZONE,14837.91,443.8,33.435,2.991E-002,8.624,148.318,238.063,0.000,0.000,0.000,395.005,No
 Zone Internal Gains Nominal, BUILDING STORY 8 THERMALZONE,14837.91,4980.4,2.979,0.336,14.095,106.158,87.223,0.000,0.000,0.000,207.477,No
! <People Internal Gains Nominal>,Name,Schedule Name,Zone Name,Zone Floor Area {m2},# Zone Occupants,Number of People {},People/Floor Area {person/m2},Floor Area per person {m2/person},Fraction Radiant,Fraction Convected,Sensible Fraction Calculation,Activity level,ASHRAE 55 Warnings,Carbon Dioxide Generation Rate,Nominal Minimum Number of People,Nominal Maximum Number of People
 People Internal Gains Nominal, BUILDING STORY 8 THERMALZONE LARGEHOTEL BANQUET PEOPLE 1,HOTELLARGE MEETINGROOM_OCC_SCH,BUILDING STORY 8 THERMALZONE,14837.91,4980.4,2123.1,0.143,6.989,0.300,0.700,AutoCalculate,HOTELLARGE ACTIVITY_SCH,No,3.8200E-008,0,2123
 People Internal Gains Nominal, BUILDING STORY 8 THERMALZONE LARGEHOTEL CAFE PEOPLE 1,HOTELLARGE BLDG_OCC_SCH,BUILDING STORY 8 THERMALZONE,14837.91,4980.4,602.4,4.060E-002,24.630,0.300,0.700,AutoCalculate,HOTELLARGE ACTIVITY_SCH,No,3.8200E-008,0,602
 People Internal Gains Nominal, BUILDING STORY 8 THERMALZONE LARGEHOTEL KITCHEN PEOPLE 1,HOTELLARGE BLDG_OCC_SCH,BUILDING STORY 8 THERMALZONE,14837.91,4980.4,24.6,1.661E-003,602.047,0.300,0.700,AutoCalculate,HOTELLARGE ACTIVITY_SCH,No,3.8200E-008,0,25
 People Internal Gains Nominal, BUILDING STORY 8 THERMALZONE LARGEHOTEL LAUNDRY PEOPLE 1,HOTELLARGE LAUNDRYROOM_OCC_SCH,BUILDING STORY 8 THERMALZONE,14837.91,4980.4,14.9,1.008E-003,992.505,0.300,0.700,AutoCalculate,HOTELLARGE ACTIVITY_SCH,No,3.8200E-008,0,15
 People Internal Gains Nominal, BUILDING STORY 8 THERMALZONE LARGEHOTEL LOBBY PEOPLE 1,HOTELLARGE BLDG_OCC_SCH,BUILDING STORY 8 THERMALZONE,14837.91,4980.4,1873.6,0.126,7.919,0.300,0.700,AutoCalculate,HOTELLARGE ACTIVITY_SCH,No,3.8200E-008,0,1874
 People Internal Gains Nominal, BUILDING STORY 8 THERMALZONE LARGEHOTEL RETAIL PEOPLE 1,HOTELLARGE BLDG_OCC_SCH,BUILDING STORY 8 THERMALZONE,14837.91,4980.4,104.0,7.009E-003,142.673,0.300,0.700,AutoCalculate,HOTELLARGE ACTIVITY_SCH,No,3.8200E-008,0,104
 People Internal Gains Nominal, BUILDING STORY 8 THERMALZONE LARGEHOTEL STORAGE PEOPLE 1,HOTELLARGE BLDG_OCC_SCH,BUILDING STORY 8 THERMALZONE,14837.91,4980.4,9.1,6.133E-004,1630.543,0.300,0.700,AutoCalculate,HOTELLARGE ACTIVITY_SCH,No,3.8200E-008,0,9
 People Internal Gains Nominal, BUILDING STORY 8 THERMALZONE STRIPMALL STRIP MALL - TYPE 2 PEOPLE 1,RETAILSTRIPMALL TYPE2_OCC_SCH,BUILDING STORY 8 THERMALZONE,14837.91,4980.4,228.6,1.541E-002,64.904,0.300,0.700,AutoCalculate,HOTELSMALL ACTIVITY_SCH,No,3.8200E-008,0,229
 People Internal Gains Nominal, BUILDING STORY 6 THERMALZONE FULLSERVICERESTAURANT KITCHEN PEOPLE 1,RESTAURANTSITDOWN BLDG_OCC_SCH,BUILDING STORY 6 THERMALZONE,14837.91,1192.0,142.9,9.630E-003,103.846,0.300,0.700,AutoCalculate,RESTAURANTSITDOWN ACTIVITY_SCH,No,3.8200E-008,0,143
 People Internal Gains Nominal, BUILDING STORY 6 THERMALZONE STRIPMALL STRIP MALL - TYPE 1 PEOPLE 1,RETAILSTRIPMALL TYPE1_OCC_SCH,BUILDING STORY 6 THERMALZONE,14837.91,1192.0,638.9,4.306E-002,23.226,0.300,0.700,AutoCalculate,HOTELSMALL ACTIVITY_SCH,No,3.8200E-008,0,639
 People Internal Gains Nominal, BUILDING STORY 6 THERMALZONE STRIPMALL STRIP MALL - TYPE 2 PEOPLE 2,RETAILSTRIPMALL TYPE2_OCC_SCH,BUILDING STORY 6 THERMALZONE,14837.91,1192.0,410.2,2.765E-002,36.169,0.300,0.700,AutoCalculate,HOTELSMALL ACTIVITY_SCH,No,3.8200E-008,0,410
 People Internal Gains Nominal, BUILDING STORY 7 THERMALZONE FULLSERVICERESTAURANT KITCHEN PEOPLE 2,RESTAURANTSITDOWN BLDG_OCC_SCH,BUILDING STORY 7 THERMALZONE,14837.91,443.8,292.8,1.973E-002,50.673,0.300,0.700,AutoCalculate,RESTAURANTSITDOWN ACTIVITY_SCH,No,3.8200E-008,0,293
 People Internal Gains Nominal, BUILDING STORY 7 THERMALZONE LARGEHOTEL CORRIDOR PEOPLE 1,HOTELLARGE BLDG_OCC_SCH,BUILDING STORY 7 THERMALZONE,14837.91,443.8,94.0,6.337E-003,157.794,0.300,0.700,AutoCalculate,HOTELLARGE ACTIVITY_SCH,No,3.8200E-008,0,94
 People Internal Gains Nominal, BUILDING STORY 7 THERMALZONE STRIPMALL STRIP MALL - TYPE 3 PEOPLE 1,RETAILSTRIPMALL TYPE3_OCC_SCH,BUILDING STORY 7 THERMALZONE,14837.91,443.8,56.9,3.838E-003,260.585,0.300,0.700,AutoCalculate,HOTELSMALL ACTIVITY_SCH,No,3.8200E-008,0,57
 People Internal Gains Nominal, BUILDING STORY 5 THERMALZONE OFFICE WHOLEBUILDING - MD OFFICE PEOPLE 1,OFFICEMEDIUM BLDG_OCC_SCH,BUILDING STORY 5 THERMALZONE,14837.91,1256.4,35.6,2.398E-003,416.935,0.300,0.700,AutoCalculate,OFFICEMEDIUM ACTIVITY_SCH,No,3.8200E-008,0,36
 People Internal Gains Nominal, BUILDING STORY 5 THERMALZONE STRIPMALL STRIP MALL - TYPE 3 PEOPLE 2,RETAILSTRIPMALL TYPE3_OCC_SCH,BUILDING STORY 5 THERMALZONE,14837.91,1256.4,1220.8,8.227E-002,12.155,0.300,0.700,AutoCalculate,HOTELSMALL ACTIVITY_SCH,No,3.8200E-008,0,1221
 People Internal Gains Nominal, BUILDING STORY 4 THERMALZONE OFFICE WHOLEBUILDING - MD OFFICE PEOPLE 2,OFFICEMEDIUM BLDG_OCC_SCH,BUILDING STORY 4 THERMALZONE,14837.91,798.6,798.6,5.382E-002,18.581,0.300,0.700,AutoCalculate,OFFICEMEDIUM ACTIVITY_SCH,No,3.8200E-008,0,799
 People Internal Gains Nominal, BUILDING STORY 1 THERMALZONE LARGEHOTEL GUESTROOM PEOPLE 1,HOTELLARGE GUESTROOM_OCC_SCH,BUILDING STORY 1 THERMALZONE,14837.91,605.7,481.6,3.245E-002,30.813,0.300,0.700,AutoCalculate,HOTELLARGE ACTIVITY_SCH,No,3.8200E-008,0,482
 People Internal Gains Nominal, BUILDING STORY 1 THERMALZONE OFFICE WHOLEBUILDING - MD OFFICE PEOPLE 3,OFFICEMEDIUM BLDG_OCC_SCH,BUILDING STORY 1 THERMALZONE,14837.91,605.7,124.1,8.365E-003,119.539,0.300,0.700,AutoCalculate,OFFICEMEDIUM ACTIVITY_SCH,No,3.8200E-008,0,124
 People Internal Gains Nominal, BUILDING STORY 3 THERMALZONE FULLSERVICERESTAURANT DINING PEOPLE 1,RESTAURANTSITDOWN BLDG_OCC_SCH,BUILDING STORY 3 THERMALZONE,14837.91,5391.3,5080.2,0.342,2.921,0.300,0.700,AutoCalculate,RESTAURANTSITDOWN ACTIVITY_SCH,No,3.8200E-008,0,5080
 People Internal Gains Nominal, BUILDING STORY 3 THERMALZONE LARGEHOTEL GUESTROOM PEOPLE 2,HOTELLARGE GUESTROOM_OCC_SCH,BUILDING STORY 3 THERMALZONE,14837.91,5391.3,311.1,2.097E-002,47.697,0.300,0.700,AutoCalculate,HOTELLARGE ACTIVITY_SCH,No,3.8200E-008,0,311
 People Internal Gains Nominal, BUILDING STORY 2 THERMALZONE FULLSERVICERESTAURANT DINING PEOPLE 2,RESTAURANTSITDOWN BLDG_OCC_SCH,BUILDING STORY 2 THERMALZONE,14837.91,11180.0,11180.0,0.753,1.327,0.300,0.700,AutoCalculate,RESTAURANTSITDOWN ACTIVITY_SCH,No,3.8200E-008,0,11180
! <Lights Internal Gains Nominal>,Name,Schedule Name,Zone Name,Zone Floor Area {m2},# Zone Occupants,Lighting Level {W},Lights/Floor Area {W/m2},Lights per person {W/person},Fraction Return Air,Fraction Radiant,Fraction Short Wave,Fraction Convected,Fraction Replaceable,End-Use Category,Nominal Minimum Lighting Level {W},Nominal Maximum Lighting Level {W}
 Lights Internal Gains Nominal, BUILDING STORY 8 THERMALZONE LARGEHOTEL BANQUET LIGHTS 1,HOTELLARGE BLDG_LIGHT_SCH,BUILDING STORY 8 THERMALZONE,14837.91,4980.4,41193.658,2.776,8.271,0.000,0.700,0.200,0.100,1.000,General,0.000,41193.658
 Lights Internal Gains Nominal, BUILDING STORY 8 THERMALZONE LARGEHOTEL CAFE LIGHTS 1,HOTELLARGE BLDG_LIGHT_SCH,BUILDING STORY 8 THERMALZONE,14837.91,4980.4,11689.141,0.788,2.347,0.000,0.700,0.200,0.100,1.000,General,0.000,11689.141
 Lights Internal Gains Nominal, BUILDING STORY 8 THERMALZONE LARGEHOTEL KITCHEN LIGHTS 1,HOTELLARGE BLDG_LIGHT_SCH,BUILDING STORY 8 THERMALZONE,14837.91,4980.4,5914.987,0.399,1.188,0.000,0.700,0.200,0.100,1.000,General,0.000,5914.987
 Lights Internal Gains Nominal, BUILDING STORY 8 THERMALZONE LARGEHOTEL LAUNDRY LIGHTS 1,HOTELLARGE BLDG_LIGHT_SCH,BUILDING STORY 8 THERMALZONE,14837.91,4980.4,2242.495,0.151,0.450,0.000,0.700,0.200,0.100,1.000,General,0.000,2242.495
 Lights Internal Gains Nominal, BUILDING STORY 8 THERMALZONE LARGEHOTEL LOBBY LIGHTS 1,HOTELLARGE BLDG_LIGHT_SCH,BUILDING STORY 8 THERMALZONE,14837.91,4980.4,68699.430,4.630,13.794,0.000,0.700,0.200,0.100,1.000,General,0.000,68699.430
 Lights Internal Gains Nominal, BUILDING STORY 8 THERMALZONE LARGEHOTEL MECHANICAL LIGHTS 1,HOTELLARGE BLDG_LIGHT_SCH,BUILDING STORY 8 THERMALZONE,14837.91,4980.4,11781.224,0.794,2.366,0.000,0.700,0.200,0.100,1.000,General,0.000,11781.224
 Lights Internal Gains Nominal, BUILDING STORY 8 THERMALZONE LARGEHOTEL RETAIL LIGHTS 1,HOTELLARGE BLDG_LIGHT_SCH,BUILDING STORY 8 THERMALZONE,14837.91,4980.4,10399.977,0.701,2.088,0.000,0.700,0.200,0.100,1.000,General,0.000,10399.977
 Lights Internal Gains Nominal, BUILDING STORY 8 THERMALZONE LARGEHOTEL STORAGE LIGHTS 1,HOTELLARGE BLDG_LIGHT_STORAGE_SCH,BUILDING STORY 8 THERMALZONE,14837.91,4980.4,3639.992,0.245,0.731,0.000,0.700,0.200,0.100,1.000,General,0.000,3639.992
 Lights Internal Gains Nominal, BUILDING STORY 8 THERMALZONE STRIPMALL STRIP MALL - TYPE 2 ADDITIONAL LIGHTS 1,RETAILSTRIPMALL TYPE2_LIGHT_SCH,BUILDING STORY 8 THERMALZONE,14837.91,4980.4,10716.271,0.722,2.152,0.000,0.700,0.200,0.100,1.000,General,0.000,10716.271
 Lights Internal Gains Nominal, BUILDING STORY 8 THERMALZONE STRIPMALL STRIP MALL - TYPE 2 LIGHTS 1,RETAILSTRIPMALL TYPE2_LIGHT_SCH,BUILDING STORY 8 THERMALZONE,14837.91,4980.4,42865.083,2.889,8.607,0.000,0.700,0.200,0.100,1.000,General,0.000,42865.083
 Lights Internal Gains Nominal, BUILDING STORY 6 THERMALZONE FULLSERVICERESTAURANT KITCHEN LIGHTS 1,RESTAURANTSITDOWN BLDG_LIGHT_KITCHEN_SCH_2004_2007,BUILDING STORY 6 THERMALZONE,14837.91,1192.0,34292.066,2.311,28.769,0.000,0.700,0.200,0.100,1.000,General,0.000,34292.066
 Lights Internal Gains Nominal, BUILDING STORY 6 THERMALZONE STRIPMALL STRIP MALL - TYPE 1 ADDITIONAL LIGHTS 1,RETAILSTRIPMALL TYPE1_LIGHT_SCH,BUILDING STORY 6 THERMALZONE,14837.91,1192.0,75864.116,5.113,63.645,0.000,0.700,0.200,0.100,1.000,General,0.000,75864.116
 Lights Internal Gains Nominal, BUILDING STORY 6 THERMALZONE STRIPMALL STRIP MALL - TYPE 1 LIGHTS 1,RETAILSTRIPMALL TYPE1_LIGHT_SCH,BUILDING STORY 6 THERMALZONE,14837.91,1192.0,119785.447,8.073,100.493,0.000,0.700,0.200,0.100,1.000,General,0.000,119785.447
 Lights Internal Gains Nominal, BUILDING STORY 6 THERMALZONE STRIPMALL STRIP MALL - TYPE 2 ADDITIONAL LIGHTS 2,RETAILSTRIPMALL TYPE2_LIGHT_SCH,BUILDING STORY 6 THERMALZONE,14837.91,1192.0,19230.091,1.296,16.133,0.000,0.700,0.200,0.100,1.000,General,0.000,19230.091
 Lights Internal Gains Nominal, BUILDING STORY 6 THERMALZONE STRIPMALL STRIP MALL - TYPE 2 LIGHTS 2,RETAILSTRIPMALL TYPE2_LIGHT_SCH,BUILDING STORY 6 THERMALZONE,14837.91,1192.0,76920.364,5.184,64.532,0.000,0.700,0.200,0.100,1.000,General,0.000,76920.364
 Lights Internal Gains Nominal, BUILDING STORY 7 THERMALZONE FULLSERVICERESTAURANT KITCHEN LIGHTS 2,RESTAURANTSITDOWN BLDG_LIGHT_KITCHEN_SCH_2004_2007,BUILDING STORY 7 THERMALZONE,14837.91,443.8,70275.837,4.736,158.354,0.000,0.700,0.200,0.100,1.000,General,0.000,70275.837
 Lights Internal Gains Nominal, BUILDING STORY 7 THERMALZONE LARGEHOTEL CORRIDOR LIGHTS 1,HOTELLARGE BLDG_LIGHT_CORRIDOR_SCH,BUILDING STORY 7 THERMALZONE,14837.91,443.8,47016.562,3.169,105.943,0.000,0.700,0.200,0.100,1.000,General,0.000,47016.562
 Lights Internal Gains Nominal, BUILDING STORY 7 THERMALZONE STRIPMALL STRIP MALL - TYPE 3 LIGHTS 1,RETAILSTRIPMALL TYPE3_LIGHT_SCH,BUILDING STORY 7 THERMALZONE,14837.91,443.8,10676.412,0.720,24.057,0.000,0.700,0.200,0.100,1.000,General,0.000,10676.412
 Lights Internal Gains Nominal, BUILDING STORY 5 THERMALZONE OFFICE WHOLEBUILDING - MD OFFICE LIGHTS 1,OFFICEMEDIUM BLDG_LIGHT_SCH_2004,BUILDING STORY 5 THERMALZONE,14837.91,1256.4,7117.608,0.480,5.665,0.000,0.700,0.200,0.100,1.000,General,0.000,7117.608
 Lights Internal Gains Nominal, BUILDING STORY 5 THERMALZONE STRIPMALL STRIP MALL - TYPE 3 LIGHTS 2,RETAILSTRIPMALL TYPE3_LIGHT_SCH,BUILDING STORY 5 THERMALZONE,14837.91,1256.4,228894.481,15.426,182.189,0.000,0.700,0.200,0.100,1.000,General,0.000,228894.481
 Lights Internal Gains Nominal, BUILDING STORY 4 THERMALZONE OFFICE WHOLEBUILDING - MD OFFICE LIGHTS 2,OFFICEMEDIUM BLDG_LIGHT_SCH_2004,BUILDING STORY 4 THERMALZONE,14837.91,798.6,159713.929,10.764,200.000,0.000,0.700,0.200,0.100,1.000,General,0.000,159713.929
 Lights Internal Gains Nominal, BUILDING STORY 1 THERMALZONE LARGEHOTEL GUESTROOM LIGHTS 1,HOTELLARGE BLDG_LIGHT_GUESTROOM_SCH,BUILDING STORY 1 THERMALZONE,14837.91,605.7,148377.626,10.000,244.977,0.000,0.700,0.200,0.100,1.000,General,0.000,148377.626
 Lights Internal Gains Nominal, BUILDING STORY 1 THERMALZONE OFFICE WHOLEBUILDING - MD OFFICE LIGHTS 3,OFFICEMEDIUM BLDG_LIGHT_SCH_2004,BUILDING STORY 1 THERMALZONE,14837.91,605.7,24825.178,1.673,40.987,0.000,0.700,0.200,0.100,1.000,General,0.000,24825.178
 Lights Internal Gains Nominal, BUILDING STORY 3 THERMALZONE FULLSERVICERESTAURANT DINING LIGHTS 1,RESTAURANTSITDOWN BLDG_LIGHT_KITCHEN_SCH_2004_2007,BUILDING STORY 3 THERMALZONE,14837.91,5391.3,152405.419,10.271,28.269,0.000,0.700,0.200,0.100,1.000,General,0.000,152405.419
 Lights Internal Gains Nominal, BUILDING STORY 3 THERMALZONE LARGEHOTEL GUESTROOM LIGHTS 2,HOTELLARGE BLDG_LIGHT_GUESTROOM_SCH,BUILDING STORY 3 THERMALZONE,14837.91,5391.3,95853.911,6.460,17.779,0.000,0.700,0.200,0.100,1.000,General,0.000,95853.911
 Lights Internal Gains Nominal, BUILDING STORY 2 THERMALZONE FULLSERVICERESTAURANT DINING LIGHTS 2,RESTAURANTSITDOWN BLDG_LIGHT_KITCHEN_SCH_2004_2007,BUILDING STORY 2 THERMALZONE,14837.91,11180.0,335399.250,22.604,30.000,0.000,0.700,0.200,0.100,1.000,General,0.000,335399.250
! <ElectricEquipment Internal Gains Nominal>,Name,Schedule Name,Zone Name,Zone Floor Area {m2},# Zone Occupants,Equipment Level {W},Equipment/Floor Area {W/m2},Equipment per person {W/person},Fraction Latent,Fraction Radiant,Fraction Lost,Fraction Convected,End-Use SubCategory,Nominal Minimum Equipment Level {W},Nominal Maximum Equipment Level {W}
 ElectricEquipment Internal Gains Nominal, BUILDING STORY 8 THERMALZONE 51 ELEVATOR FANS,ELEVATOR SCHEDULE 3,BUILDING STORY 8 THERMALZONE,14837.91,4980.4,3808.980,0.257,0.765,0.000,0.500,0.000,0.500,Elevators,0.000,3808.980
 ElectricEquipment Internal Gains Nominal, BUILDING STORY 8 THERMALZONE 51 ELEVATOR LIFT MOTORS,ELEVATOR SCHEDULE 1,BUILDING STORY 8 THERMALZONE,14837.91,4980.4,1038323.441,69.978,208.481,0.000,0.000,1.000,0.000,Elevators,0.000,1038323.441
 ElectricEquipment Internal Gains Nominal, BUILDING STORY 8 THERMALZONE 51 ELEVATOR LIGHTS,ELEVATOR SCHEDULE 2,BUILDING STORY 8 THERMALZONE,14837.91,4980.4,4534.500,0.306,0.910,0.000,0.500,0.000,0.500,Elevators,0.000,4534.500
 ElectricEquipment Internal Gains Nominal, BUILDING STORY 8 THERMALZONE LARGEHOTEL BANQUET ELEC EQUIP 1,HOTELLARGE KITCHEN_ELEC_EQUIP_SCH,BUILDING STORY 8 THERMALZONE,14837.91,4980.4,199662.491,13.456,40.089,0.000,0.500,0.000,0.500,General,0.000,59898.747
 ElectricEquipment Internal Gains Nominal, BUILDING STORY 8 THERMALZONE LARGEHOTEL CAFE ELEC EQUIP 1,HOTELLARGE BLDG_EQUIP_SCH,BUILDING STORY 8 THERMALZONE,14837.91,4980.4,4495.823,0.303,0.903,0.000,0.500,0.000,0.500,General,0.000,4495.823
 ElectricEquipment Internal Gains Nominal, BUILDING STORY 8 THERMALZONE LARGEHOTEL KITCHEN ELEC EQUIP 1,HOTELLARGE KITCHEN_ELEC_EQUIP_SCH,BUILDING STORY 8 THERMALZONE,14837.91,4980.4,232656.147,15.680,46.714,0.200,0.500,0.100,0.200,General,0.000,69796.844
 ElectricEquipment Internal Gains Nominal, BUILDING STORY 8 THERMALZONE LARGEHOTEL LAUNDRY ELEC EQUIP 1,HOTELLARGE BLDG_EQUIP_SCH,BUILDING STORY 8 THERMALZONE,14837.91,4980.4,21415.827,1.443,4.300,0.000,0.500,0.000,0.500,General,0.000,21415.827
 ElectricEquipment Internal Gains Nominal, BUILDING STORY 8 THERMALZONE LARGEHOTEL LOBBY ELEC EQUIP 1,HOTELLARGE BLDG_EQUIP_SCH,BUILDING STORY 8 THERMALZONE,14837.91,4980.4,46840.520,3.157,9.405,0.000,0.500,0.000,0.500,General,0.000,46840.520
 ElectricEquipment Internal Gains Nominal, BUILDING STORY 8 THERMALZONE LARGEHOTEL MECHANICAL ELEC EQUIP 1,HOTELLARGE BASEMENT_EQUIP_SCH,BUILDING STORY 8 THERMALZONE,14837.91,4980.4,3927.075,0.265,0.789,0.000,0.500,0.000,0.500,General,0.000,3927.075
 ElectricEquipment Internal Gains Nominal, BUILDING STORY 8 THERMALZONE LARGEHOTEL RETAIL ELEC EQUIP 1,HOTELLARGE BLDG_EQUIP_SCH,BUILDING STORY 8 THERMALZONE,14837.91,4980.4,6933.318,0.467,1.392,0.000,0.500,0.000,0.500,General,0.000,6933.318
 ElectricEquipment Internal Gains Nominal, BUILDING STORY 8 THERMALZONE LARGEHOTEL STORAGE ELEC EQUIP 1,HOTELLARGE BASEMENT_EQUIP_SCH,BUILDING STORY 8 THERMALZONE,14837.91,4980.4,1137.497,7.666E-002,0.228,0.000,0.500,0.000,0.500,General,0.000,1137.497
 ElectricEquipment Internal Gains Nominal, BUILDING STORY 8 THERMALZONE STRIPMALL STRIP MALL - TYPE 2 ELEC EQUIP 1,RETAILSTRIPMALL TYPE2_EQUIP_SCH,BUILDING STORY 8 THERMALZONE,14837.91,4980.4,11430.689,0.770,2.295,0.000,0.500,0.000,0.500,General,0.000,11430.689
 ElectricEquipment Internal Gains Nominal, BUILDING STORY 6 THERMALZONE FULLSERVICERESTAURANT KITCHEN ELEC EQUIP 1,RESTAURANTSITDOWN BLDG_EQUIP_SCH,BUILDING STORY 6 THERMALZONE,14837.91,1192.0,1072484.371,72.280,899.749,0.250,0.300,0.200,0.250,General,0.000,311020.468
 ElectricEquipment Internal Gains Nominal, BUILDING STORY 6 THERMALZONE STRIPMALL STRIP MALL - TYPE 1 ELEC EQUIP 1,RETAILSTRIPMALL TYPE1_EQUIP_SCH,BUILDING STORY 6 THERMALZONE,14837.91,1192.0,31942.786,2.153,26.798,0.000,0.500,0.000,0.500,General,0.000,31942.786
 ElectricEquipment Internal Gains Nominal, BUILDING STORY 6 THERMALZONE STRIPMALL STRIP MALL - TYPE 2 ELEC EQUIP 2,RETAILSTRIPMALL TYPE2_EQUIP_SCH,BUILDING STORY 6 THERMALZONE,14837.91,1192.0,20512.097,1.382,17.208,0.000,0.500,0.000,0.500,General,0.000,20512.097
 ElectricEquipment Internal Gains Nominal, BUILDING STORY 7 THERMALZONE FULLSERVICERESTAURANT KITCHEN ELEC EQUIP 2,RESTAURANTSITDOWN BLDG_EQUIP_SCH,BUILDING STORY 7 THERMALZONE,14837.91,443.8,2197876.809,148.126,4952.516,0.250,0.300,0.200,0.250,General,0.000,637384.275
 ElectricEquipment Internal Gains Nominal, BUILDING STORY 7 THERMALZONE STRIPMALL STRIP MALL - TYPE 3 ELEC EQUIP 1,RETAILSTRIPMALL TYPE3_EQUIP_SCH,BUILDING STORY 7 THERMALZONE,14837.91,443.8,2847.043,0.192,6.415,0.000,0.500,0.000,0.500,General,0.000,2847.043
 ElectricEquipment Internal Gains Nominal, BUILDING STORY 5 THERMALZONE OFFICE WHOLEBUILDING - MD OFFICE ELEC EQUIP 1,OFFICEMEDIUM BLDG_EQUIP_SCH_2004,BUILDING STORY 5 THERMALZONE,14837.91,1256.4,5338.206,0.360,4.249,0.000,0.500,0.000,0.500,General,0.000,5338.206
 ElectricEquipment Internal Gains Nominal, BUILDING STORY 5 THERMALZONE STRIPMALL STRIP MALL - TYPE 3 ELEC EQUIP 2,RETAILSTRIPMALL TYPE3_EQUIP_SCH,BUILDING STORY 5 THERMALZONE,14837.91,1256.4,61038.528,4.114,48.584,0.000,0.500,0.000,0.500,General,0.000,61038.528
 ElectricEquipment Internal Gains Nominal, BUILDING STORY 4 THERMALZONE OFFICE WHOLEBUILDING - MD OFFICE ELEC EQUIP 2,OFFICEMEDIUM BLDG_EQUIP_SCH_2004,BUILDING STORY 4 THERMALZONE,14837.91,798.6,119785.447,8.073,150.000,0.000,0.500,0.000,0.500,General,0.000,119785.447
 ElectricEquipment Internal Gains Nominal, BUILDING STORY 1 THERMALZONE LARGEHOTEL GUESTROOM ELEC EQUIP 1,HOTELLARGE GUESTROOM_EQP_SCH_BASE,BUILDING STORY 1 THERMALZONE,14837.91,605.7,84575.247,5.700,139.637,0.000,0.500,0.000,0.500,General,0.000,84575.247
 ElectricEquipment Internal Gains Nominal, BUILDING STORY 1 THERMALZONE OFFICE WHOLEBUILDING - MD OFFICE ELEC EQUIP 3,OFFICEMEDIUM BLDG_EQUIP_SCH_2004,BUILDING STORY 1 THERMALZONE,14837.91,605.7,18618.883,1.255,30.741,0.000,0.500,0.000,0.500,General,0.000,18618.883
 ElectricEquipment Internal Gains Nominal, BUILDING STORY 3 THERMALZONE FULLSERVICERESTAURANT DINING ELEC EQUIP 1,RESTAURANTSITDOWN BLDG_EQUIP_SCH,BUILDING STORY 3 THERMALZONE,14837.91,5391.3,437766.424,29.503,81.199,0.250,0.300,0.000,0.450,General,0.000,126952.263
 ElectricEquipment Internal Gains Nominal, BUILDING STORY 3 THERMALZONE LARGEHOTEL GUESTROOM ELEC EQUIP 2,HOTELLARGE GUESTROOM_EQP_SCH_BASE,BUILDING STORY 3 THERMALZONE,14837.91,5391.3,54636.730,3.682,10.134,0.000,0.500,0.000,0.500,General,0.000,54636.730
 ElectricEquipment Internal Gains Nominal, BUILDING STORY 2 THERMALZONE FULLSERVICERESTAURANT DINING ELEC EQUIP 2,RESTAURANTSITDOWN BLDG_EQUIP_SCH,BUILDING STORY 2 THERMALZONE,14837.91,11180.0,963394.418,64.928,86.171,0.250,0.300,0.000,0.450,General,0.000,279384.381
! <GasEquipment Internal Gains Nominal>,Name,Schedule Name,Zone Name,Zone Floor Area {m2},# Zone Occupants,Equipment Level {W},Equipment/Floor Area {W/m2},Equipment per person {W/person},Fraction Latent,Fraction Radiant,Fraction Lost,Fraction Convected,End-Use SubCategory,Nominal Minimum Equipment Level {W},Nominal Maximum Equipment Level {W}
 GasEquipment Internal Gains Nominal, BUILDING STORY 8 THERMALZONE LARGEHOTEL KITCHEN GAS EQUIP 1,HOTELLARGE KITCHEN_GAS_EQUIP_SCH,BUILDING STORY 8 THERMALZONE,14837.91,4980.4,1108002.771,74.674,222.471,0.100,0.200,0.700,0.000,General,0.000,332400.831
 GasEquipment Internal Gains Nominal, BUILDING STORY 8 THERMALZONE LARGEHOTEL LAUNDRY GAS EQUIP 1,HOTELLARGE BLDG_EQUIP_SCH,BUILDING STORY 8 THERMALZONE,14837.91,4980.4,186209.615,12.550,37.388,0.000,0.500,0.000,0.500,General,0.000,186209.615
 GasEquipment Internal Gains Nominal, BUILDING STORY 6 THERMALZONE FULLSERVICERESTAURANT KITCHEN GAS EQUIP 1,RESTAURANTSITDOWN REST_GAS_EQUIP_SCH,BUILDING STORY 6 THERMALZONE,14837.91,1192.0,1723660.902,116.166,1446.047,0.100,0.200,0.700,0.000,General,0.000,499861.661
 GasEquipment Internal Gains Nominal, BUILDING STORY 7 THERMALZONE FULLSERVICERESTAURANT KITCHEN GAS EQUIP 2,RESTAURANTSITDOWN REST_GAS_EQUIP_SCH,BUILDING STORY 7 THERMALZONE,14837.91,443.8,3532353.874,238.063,7959.517,0.100,0.200,0.700,0.000,General,0.000,1024382.623
! <Shadowing/Sun Position Calculations Annual Simulations>, Calculation Method, Value {days}, Allowable Number Figures in Shadow Overlap {}, Polygon Clipping Algorithm, Sky Diffuse Modeling Algorithm, External Shading Calculation Method, Output External Shading Calculation Results, Disable Self-Shading Within Shading Zone Groups, Disable Self-Shading From Shading Zone Groups to Other Zones
Shadowing/Sun Position Calculations Annual Simulations,AverageOverDaysInFrequency,20,15000,SutherlandHodgman,SimpleSkyDiffuseModeling,InternalCalculation,No,No,No
! <Water Heater Information>,Type,Name,Volume {m3},Maximum Capacity {W},Standard Rated Recovery Efficiency, Standard Rated Energy Factor
! <ZoneInfiltration Airflow Stats Nominal>,Name,Schedule Name,Zone Name, Zone Floor Area {m2}, # Zone Occupants,Design Volume Flow Rate {m3/s},Volume Flow Rate/Floor Area {m3/s-m2},Volume Flow Rate/Exterior Surface Area {m3/s-m2},ACH - Air Changes per Hour,Equation A - Constant Term Coefficient {},Equation B - Temperature Term Coefficient {1/C},Equation C - Velocity Term Coefficient {s/m}, Equation D - Velocity Squared Term Coefficient {s2/m2}
 ZoneInfiltration Airflow Stats Nominal, BUILDING STORY 8 THERMALZONE LARGEHOTEL BANQUET A  - STORY GROUND INFILTRATION,ALWAYS ON DISCRETE,BUILDING STORY 8 THERMALZONE,14837.91,4980.4,1.250,8.427E-005,7.367E-005,0.101,0.000,0.000,0.224,0.000
 ZoneInfiltration Airflow Stats Nominal, BUILDING STORY 8 THERMALZONE LARGEHOTEL BANQUET A END_B - STORY GROUND INFILTRATION,ALWAYS ON DISCRETE,BUILDING STORY 8 THERMALZONE,14837.91,4980.4,0.261,1.760E-005,1.539E-005,2.112E-002,0.000,0.000,0.224,0.000
 ZoneInfiltration Airflow Stats Nominal, BUILDING STORY 8 THERMALZONE LARGEHOTEL BANQUET B END_B - STORY GROUND INFILTRATION,ALWAYS ON DISCRETE,BUILDING STORY 8 THERMALZONE,14837.91,4980.4,1.479,9.967E-005,8.714E-005,0.120,0.000,0.000,0.224,0.000
 ZoneInfiltration Airflow Stats Nominal, BUILDING STORY 8 THERMALZONE LARGEHOTEL BANQUET C  - STORY GROUND INFILTRATION,ALWAYS ON DISCRETE,BUILDING STORY 8 THERMALZONE,14837.91,4980.4,1.250,8.427E-005,7.367E-005,0.101,0.000,0.000,0.224,0.000
 ZoneInfiltration Airflow Stats Nominal, BUILDING STORY 8 THERMALZONE LARGEHOTEL BANQUET C END_B - STORY GROUND INFILTRATION,ALWAYS ON DISCRETE,BUILDING STORY 8 THERMALZONE,14837.91,4980.4,0.261,1.760E-005,1.539E-005,2.112E-002,0.000,0.000,0.224,0.000
 ZoneInfiltration Airflow Stats Nominal, BUILDING STORY 8 THERMALZONE LARGEHOTEL CAFE A  - STORY GROUND INFILTRATION,ALWAYS ON DISCRETE,BUILDING STORY 8 THERMALZONE,14837.91,4980.4,0.392,2.641E-005,2.309E-005,3.169E-002,0.000,0.000,0.224,0.000
 ZoneInfiltration Airflow Stats Nominal, BUILDING STORY 8 THERMALZONE LARGEHOTEL CAFE C  - STORY GROUND INFILTRATION,ALWAYS ON DISCRETE,BUILDING STORY 8 THERMALZONE,14837.91,4980.4,0.392,2.641E-005,2.309E-005,3.169E-002,0.000,0.000,0.224,0.000
 ZoneInfiltration Airflow Stats Nominal, BUILDING STORY 8 THERMALZONE LARGEHOTEL KITCHEN A  - STORY GROUND INFILTRATION,ALWAYS ON DISCRETE,BUILDING STORY 8 THERMALZONE,14837.91,4980.4,0.215,1.448E-005,1.266E-005,1.737E-002,0.000,0.000,0.224,0.000
 ZoneInfiltration Airflow Stats Nominal, BUILDING STORY 8 THERMALZONE LARGEHOTEL KITCHEN C  - STORY GROUND INFILTRATION,ALWAYS ON DISCRETE,BUILDING STORY 8 THERMALZONE,14837.91,4980.4,0.215,1.448E-005,1.266E-005,1.737E-002,0.000,0.000,0.224,0.000
 ZoneInfiltration Airflow Stats Nominal, BUILDING STORY 8 THERMALZONE LARGEHOTEL LAUNDRY A  - STORY GROUND INFILTRATION,ALWAYS ON DISCRETE,BUILDING STORY 8 THERMALZONE,14837.91,4980.4,0.163,1.098E-005,9.597E-006,1.317E-002,0.000,0.000,0.224,0.000
 ZoneInfiltration Airflow Stats Nominal, BUILDING STORY 8 THERMALZONE LARGEHOTEL LAUNDRY C  - STORY GROUND INFILTRATION,ALWAYS ON DISCRETE,BUILDING STORY 8 THERMALZONE,14837.91,4980.4,0.163,1.098E-005,9.597E-006,1.317E-002,0.000,0.000,0.224,0.000
 ZoneInfiltration Airflow Stats Nominal, BUILDING STORY 8 THERMALZONE LARGEHOTEL LOBBY A  - STORY GROUND INFILTRATION,ALWAYS ON DISCRETE,BUILDING STORY 8 THERMALZONE,14837.91,4980.4,2.591,1.746E-004,1.527E-004,0.210,0.000,0.000,0.224,0.000
 ZoneInfiltration Airflow Stats Nominal, BUILDING STORY 8 THERMALZONE LARGEHOTEL LOBBY A END_A - STORY GROUND INFILTRATION,ALWAYS ON DISCRETE,BUILDING STORY 8 THERMALZONE,14837.91,4980.4,0.261,1.760E-005,1.539E-005,2.112E-002,0.000,0.000,0.224,0.000
 ZoneInfiltration Airflow Stats Nominal, BUILDING STORY 8 THERMALZONE LARGEHOTEL LOBBY B END_A - STORY GROUND INFILTRATION,ALWAYS ON DISCRETE,BUILDING STORY 8 THERMALZONE,14837.91,4980.4,1.479,9.967E-005,8.714E-005,0.120,0.000,0.000,0.224,0.000
 ZoneInfiltration Airflow Stats Nominal, BUILDING STORY 8 THERMALZONE LARGEHOTEL LOBBY C  - STORY GROUND INFILTRATION,ALWAYS ON DISCRETE,BUILDING STORY 8 THERMALZONE,14837.91,4980.4,2.591,1.746E-004,1.527E-004,0.210,0.000,0.000,0.224,0.000
 ZoneInfiltration Airflow Stats Nominal, BUILDING STORY 8 THERMALZONE LARGEHOTEL LOBBY C END_A - STORY GROUND INFILTRATION,ALWAYS ON DISCRETE,BUILDING STORY 8 THERMALZONE,14837.91,4980.4,0.261,1.760E-005,1.539E-005,2.112E-002,0.000,0.000,0.224,0.000
 ZoneInfiltration Airflow Stats Nominal, BUILDING STORY 8 THERMALZONE LARGEHOTEL MECHANICAL A  - STORY GROUND INFILTRATION,ALWAYS ON DISCRETE,BUILDING STORY 8 THERMALZONE,14837.91,4980.4,0.342,2.307E-005,2.017E-005,2.768E-002,0.000,0.000,0.224,0.000
 ZoneInfiltration Airflow Stats Nominal, BUILDING STORY 8 THERMALZONE LARGEHOTEL MECHANICAL C  - STORY GROUND INFILTRATION,ALWAYS ON DISCRETE,BUILDING STORY 8 THERMALZONE,14837.91,4980.4,0.342,2.307E-005,2.017E-005,2.768E-002,0.000,0.000,0.224,0.000
 ZoneInfiltration Airflow Stats Nominal, BUILDING STORY 8 THERMALZONE LARGEHOTEL RETAIL A  - STORY GROUND INFILTRATION,ALWAYS ON DISCRETE,BUILDING STORY 8 THERMALZONE,14837.91,4980.4,0.302,2.036E-005,1.780E-005,2.444E-002,0.000,0.000,0.224,0.000
 ZoneInfiltration Airflow Stats Nominal, BUILDING STORY 8 THERMALZONE LARGEHOTEL RETAIL C  - STORY GROUND INFILTRATION,ALWAYS ON DISCRETE,BUILDING STORY 8 THERMALZONE,14837.91,4980.4,0.302,2.036E-005,1.780E-005,2.444E-002,0.000,0.000,0.224,0.000
 ZoneInfiltration Airflow Stats Nominal, BUILDING STORY 8 THERMALZONE LARGEHOTEL STORAGE A  - STORY GROUND INFILTRATION,ALWAYS ON DISCRETE,BUILDING STORY 8 THERMALZONE,14837.91,4980.4,0.198,1.336E-005,1.168E-005,1.604E-002,0.000,0.000,0.224,0.000
 ZoneInfiltration Airflow Stats Nominal, BUILDING STORY 8 THERMALZONE LARGEHOTEL STORAGE C  - STORY GROUND INFILTRATION,ALWAYS ON DISCRETE,BUILDING STORY 8 THERMALZONE,14837.91,4980.4,0.198,1.336E-005,1.168E-005,1.604E-002,0.000,0.000,0.224,0.000
 ZoneInfiltration Airflow Stats Nominal, BUILDING STORY 8 THERMALZONE STRIPMALL STRIP MALL - TYPE 2 A  - STORY GROUND INFILTRATION,ALWAYS ON DISCRETE,BUILDING STORY 8 THERMALZONE,14837.91,4980.4,1.245,8.393E-005,7.338E-005,0.101,0.000,0.000,0.224,0.000
 ZoneInfiltration Airflow Stats Nominal, BUILDING STORY 8 THERMALZONE STRIPMALL STRIP MALL - TYPE 2 C  - STORY GROUND INFILTRATION,ALWAYS ON DISCRETE,BUILDING STORY 8 THERMALZONE,14837.91,4980.4,1.245,8.393E-005,7.338E-005,0.101,0.000,0.000,0.224,0.000
 ZoneInfiltration Airflow Stats Nominal, BUILDING STORY 6 THERMALZONE FULLSERVICERESTAURANT KITCHEN A  - STORY MID INFILTRATION,ALWAYS ON DISCRETE,BUILDING STORY 6 THERMALZONE,14837.91,1192.0,0.157,1.056E-005,7.338E-005,1.267E-002,0.000,0.000,0.224,0.000
 ZoneInfiltration Airflow Stats Nominal, BUILDING STORY 6 THERMALZONE FULLSERVICERESTAURANT KITCHEN C  - STORY MID INFILTRATION,ALWAYS ON DISCRETE,BUILDING STORY 6 THERMALZONE,14837.91,1192.0,0.157,1.056E-005,7.338E-005,1.267E-002,0.000,0.000,0.224,0.000
 ZoneInfiltration Airflow Stats Nominal, BUILDING STORY 6 THERMALZONE STRIPMALL STRIP MALL - TYPE 1 A  - STORY MID INFILTRATION,ALWAYS ON DISCRETE,BUILDING STORY 6 THERMALZONE,14837.91,1192.0,0.421,2.840E-005,1.974E-004,3.408E-002,0.000,0.000,0.224,0.000
 ZoneInfiltration Airflow Stats Nominal, BUILDING STORY 6 THERMALZONE STRIPMALL STRIP MALL - TYPE 1 A END_A - STORY MID INFILTRATION,ALWAYS ON DISCRETE,BUILDING STORY 6 THERMALZONE,14837.91,1192.0,3.286E-002,2.214E-006,1.539E-005,2.657E-003,0.000,0.000,0.224,0.000
 ZoneInfiltration Airflow Stats Nominal, BUILDING STORY 6 THERMALZONE STRIPMALL STRIP MALL - TYPE 1 B END_A - STORY MID INFILTRATION,ALWAYS ON DISCRETE,BUILDING STORY 6 THERMALZONE,14837.91,1192.0,0.186,1.254E-005,8.714E-005,1.505E-002,0.000,0.000,0.224,0.000
 ZoneInfiltration Airflow Stats Nominal, BUILDING STORY 6 THERMALZONE STRIPMALL STRIP MALL - TYPE 1 C  - STORY MID INFILTRATION,ALWAYS ON DISCRETE,BUILDING STORY 6 THERMALZONE,14837.91,1192.0,0.421,2.840E-005,1.974E-004,3.408E-002,0.000,0.000,0.224,0.000
 ZoneInfiltration Airflow Stats Nominal, BUILDING STORY 6 THERMALZONE STRIPMALL STRIP MALL - TYPE 1 C END_A - STORY MID INFILTRATION,ALWAYS ON DISCRETE,BUILDING STORY 6 THERMALZONE,14837.91,1192.0,3.286E-002,2.214E-006,1.539E-005,2.657E-003,0.000,0.000,0.224,0.000
 ZoneInfiltration Airflow Stats Nominal, BUILDING STORY 6 THERMALZONE STRIPMALL STRIP MALL - TYPE 2 A  - STORY MID INFILTRATION,ALWAYS ON DISCRETE,BUILDING STORY 6 THERMALZONE,14837.91,1192.0,0.265,1.784E-005,1.240E-004,2.141E-002,0.000,0.000,0.224,0.000
 ZoneInfiltration Airflow Stats Nominal, BUILDING STORY 6 THERMALZONE STRIPMALL STRIP MALL - TYPE 2 A END_B - STORY MID INFILTRATION,ALWAYS ON DISCRETE,BUILDING STORY 6 THERMALZONE,14837.91,1192.0,3.286E-002,2.214E-006,1.539E-005,2.657E-003,0.000,0.000,0.224,0.000
 ZoneInfiltration Airflow Stats Nominal, BUILDING STORY 6 THERMALZONE STRIPMALL STRIP MALL - TYPE 2 B END_B - STORY MID INFILTRATION,ALWAYS ON DISCRETE,BUILDING STORY 6 THERMALZONE,14837.91,1192.0,0.186,1.254E-005,8.714E-005,1.505E-002,0.000,0.000,0.224,0.000
 ZoneInfiltration Airflow Stats Nominal, BUILDING STORY 6 THERMALZONE STRIPMALL STRIP MALL - TYPE 2 C  - STORY MID INFILTRATION,ALWAYS ON DISCRETE,BUILDING STORY 6 THERMALZONE,14837.91,1192.0,0.265,1.784E-005,1.240E-004,2.141E-002,0.000,0.000,0.224,0.000
 ZoneInfiltration Airflow Stats Nominal, BUILDING STORY 6 THERMALZONE STRIPMALL STRIP MALL - TYPE 2 C END_B - STORY MID INFILTRATION,ALWAYS ON DISCRETE,BUILDING STORY 6 THERMALZONE,14837.91,1192.0,3.286E-002,2.214E-006,1.539E-005,2.657E-003,0.000,0.000,0.224,0.000
 ZoneInfiltration Airflow Stats Nominal, BUILDING STORY 7 THERMALZONE FULLSERVICERESTAURANT KITCHEN A  - STORY MID2 INFILTRATION,ALWAYS ON DISCRETE,BUILDING STORY 7 THERMALZONE,14837.91,443.8,0.305,2.053E-005,1.427E-004,2.464E-002,0.000,0.000,0.224,0.000
 ZoneInfiltration Airflow Stats Nominal, BUILDING STORY 7 THERMALZONE FULLSERVICERESTAURANT KITCHEN A END_B - STORY MID2 INFILTRATION,ALWAYS ON DISCRETE,BUILDING STORY 7 THERMALZONE,14837.91,443.8,3.286E-002,2.214E-006,1.539E-005,2.657E-003,0.000,0.000,0.224,0.000
 ZoneInfiltration Airflow Stats Nominal, BUILDING STORY 7 THERMALZONE FULLSERVICERESTAURANT KITCHEN B END_B - STORY MID2 INFILTRATION,ALWAYS ON DISCRETE,BUILDING STORY 7 THERMALZONE,14837.91,443.8,0.186,1.254E-005,8.714E-005,1.505E-002,0.000,0.000,0.224,0.000
 ZoneInfiltration Airflow Stats Nominal, BUILDING STORY 7 THERMALZONE FULLSERVICERESTAURANT KITCHEN C  - STORY MID2 INFILTRATION,ALWAYS ON DISCRETE,BUILDING STORY 7 THERMALZONE,14837.91,443.8,0.305,2.053E-005,1.427E-004,2.464E-002,0.000,0.000,0.224,0.000
 ZoneInfiltration Airflow Stats Nominal, BUILDING STORY 7 THERMALZONE FULLSERVICERESTAURANT KITCHEN C END_B - STORY MID2 INFILTRATION,ALWAYS ON DISCRETE,BUILDING STORY 7 THERMALZONE,14837.91,443.8,3.286E-002,2.214E-006,1.539E-005,2.657E-003,0.000,0.000,0.224,0.000
 ZoneInfiltration Airflow Stats Nominal, BUILDING STORY 7 THERMALZONE LARGEHOTEL CORRIDOR A  - STORY MID2 INFILTRATION,ALWAYS ON DISCRETE,BUILDING STORY 7 THERMALZONE,14837.91,443.8,0.499,3.364E-005,2.338E-004,4.036E-002,0.000,0.000,0.224,0.000
 ZoneInfiltration Airflow Stats Nominal, BUILDING STORY 7 THERMALZONE LARGEHOTEL CORRIDOR A END_A - STORY MID2 INFILTRATION,ALWAYS ON DISCRETE,BUILDING STORY 7 THERMALZONE,14837.91,443.8,3.286E-002,2.214E-006,1.539E-005,2.657E-003,0.000,0.000,0.224,0.000
 ZoneInfiltration Airflow Stats Nominal, BUILDING STORY 7 THERMALZONE LARGEHOTEL CORRIDOR B END_A - STORY MID2 INFILTRATION,ALWAYS ON DISCRETE,BUILDING STORY 7 THERMALZONE,14837.91,443.8,0.186,1.254E-005,8.714E-005,1.505E-002,0.000,0.000,0.224,0.000
 ZoneInfiltration Airflow Stats Nominal, BUILDING STORY 7 THERMALZONE LARGEHOTEL CORRIDOR C  - STORY MID2 INFILTRATION,ALWAYS ON DISCRETE,BUILDING STORY 7 THERMALZONE,14837.91,443.8,0.499,3.364E-005,2.338E-004,4.036E-002,0.000,0.000,0.224,0.000
 ZoneInfiltration Airflow Stats Nominal, BUILDING STORY 7 THERMALZONE LARGEHOTEL CORRIDOR C END_A - STORY MID2 INFILTRATION,ALWAYS ON DISCRETE,BUILDING STORY 7 THERMALZONE,14837.91,443.8,3.286E-002,2.214E-006,1.539E-005,2.657E-003,0.000,0.000,0.224,0.000
 ZoneInfiltration Airflow Stats Nominal, BUILDING STORY 7 THERMALZONE STRIPMALL STRIP MALL - TYPE 3 A  - STORY MID2 INFILTRATION,ALWAYS ON DISCRETE,BUILDING STORY 7 THERMALZONE,14837.91,443.8,3.902E-002,2.630E-006,1.828E-005,3.156E-003,0.000,0.000,0.224,0.000
 ZoneInfiltration Airflow Stats Nominal, BUILDING STORY 7 THERMALZONE STRIPMALL STRIP MALL - TYPE 3 C  - STORY MID2 INFILTRATION,ALWAYS ON DISCRETE,BUILDING STORY 7 THERMALZONE,14837.91,443.8,3.902E-002,2.630E-006,1.828E-005,3.156E-003,0.000,0.000,0.224,0.000
 ZoneInfiltration Airflow Stats Nominal, BUILDING STORY 5 THERMALZONE OFFICE WHOLEBUILDING - MD OFFICE A  - STORY MID3 INFILTRATION,ALWAYS ON DISCRETE,BUILDING STORY 5 THERMALZONE,14837.91,1256.4,2.259E-002,1.523E-006,1.058E-005,1.827E-003,0.000,0.000,0.224,0.000
 ZoneInfiltration Airflow Stats Nominal, BUILDING STORY 5 THERMALZONE OFFICE WHOLEBUILDING - MD OFFICE A END_B - STORY MID3 INFILTRATION,ALWAYS ON DISCRETE,BUILDING STORY 5 THERMALZONE,14837.91,1256.4,3.286E-002,2.214E-006,1.539E-005,2.657E-003,0.000,0.000,0.224,0.000
 ZoneInfiltration Airflow Stats Nominal, BUILDING STORY 5 THERMALZONE OFFICE WHOLEBUILDING - MD OFFICE B END_B - STORY MID3 INFILTRATION,ALWAYS ON DISCRETE,BUILDING STORY 5 THERMALZONE,14837.91,1256.4,0.186,1.254E-005,8.714E-005,1.505E-002,0.000,0.000,0.224,0.000
 ZoneInfiltration Airflow Stats Nominal, BUILDING STORY 5 THERMALZONE OFFICE WHOLEBUILDING - MD OFFICE C  - STORY MID3 INFILTRATION,ALWAYS ON DISCRETE,BUILDING STORY 5 THERMALZONE,14837.91,1256.4,2.259E-002,1.523E-006,1.058E-005,1.827E-003,0.000,0.000,0.224,0.000
 ZoneInfiltration Airflow Stats Nominal, BUILDING STORY 5 THERMALZONE OFFICE WHOLEBUILDING - MD OFFICE C END_B - STORY MID3 INFILTRATION,ALWAYS ON DISCRETE,BUILDING STORY 5 THERMALZONE,14837.91,1256.4,3.286E-002,2.214E-006,1.539E-005,2.657E-003,0.000,0.000,0.224,0.000
 ZoneInfiltration Airflow Stats Nominal, BUILDING STORY 5 THERMALZONE STRIPMALL STRIP MALL - TYPE 3 A  - STORY MID3 INFILTRATION,ALWAYS ON DISCRETE,BUILDING STORY 5 THERMALZONE,14837.91,1256.4,0.820,5.527E-005,3.841E-004,6.633E-002,0.000,0.000,0.224,0.000
 ZoneInfiltration Airflow Stats Nominal, BUILDING STORY 5 THERMALZONE STRIPMALL STRIP MALL - TYPE 3 A END_A - STORY MID3 INFILTRATION,ALWAYS ON DISCRETE,BUILDING STORY 5 THERMALZONE,14837.91,1256.4,3.286E-002,2.214E-006,1.539E-005,2.657E-003,0.000,0.000,0.224,0.000
 ZoneInfiltration Airflow Stats Nominal, BUILDING STORY 5 THERMALZONE STRIPMALL STRIP MALL - TYPE 3 B END_A - STORY MID3 INFILTRATION,ALWAYS ON DISCRETE,BUILDING STORY 5 THERMALZONE,14837.91,1256.4,0.186,1.254E-005,8.714E-005,1.505E-002,0.000,0.000,0.224,0.000
 ZoneInfiltration Airflow Stats Nominal, BUILDING STORY 5 THERMALZONE STRIPMALL STRIP MALL - TYPE 3 C  - STORY MID3 INFILTRATION,ALWAYS ON DISCRETE,BUILDING STORY 5 THERMALZONE,14837.91,1256.4,0.820,5.527E-005,3.841E-004,6.633E-002,0.000,0.000,0.224,0.000
 ZoneInfiltration Airflow Stats Nominal, BUILDING STORY 5 THERMALZONE STRIPMALL STRIP MALL - TYPE 3 C END_A - STORY MID3 INFILTRATION,ALWAYS ON DISCRETE,BUILDING STORY 5 THERMALZONE,14837.91,1256.4,3.286E-002,2.214E-006,1.539E-005,2.657E-003,0.000,0.000,0.224,0.000
 ZoneInfiltration Airflow Stats Nominal, BUILDING STORY 4 THERMALZONE OFFICE WHOLEBUILDING - MD OFFICE A  - STORY MID4 INFILTRATION,ALWAYS ON DISCRETE,BUILDING STORY 4 THERMALZONE,14837.91,798.6,0.843,5.680E-005,3.947E-004,6.816E-002,0.000,0.000,0.224,0.000
 ZoneInfiltration Airflow Stats Nominal, BUILDING STORY 4 THERMALZONE OFFICE WHOLEBUILDING - MD OFFICE A END_A - STORY MID4 INFILTRATION,ALWAYS ON DISCRETE,BUILDING STORY 4 THERMALZONE,14837.91,798.6,3.286E-002,2.214E-006,1.539E-005,2.657E-003,0.000,0.000,0.224,0.000
 ZoneInfiltration Airflow Stats Nominal, BUILDING STORY 4 THERMALZONE OFFICE WHOLEBUILDING - MD OFFICE A END_B - STORY MID4 INFILTRATION,ALWAYS ON DISCRETE,BUILDING STORY 4 THERMALZONE,14837.91,798.6,3.286E-002,2.214E-006,1.539E-005,2.657E-003,0.000,0.000,0.224,0.000
 ZoneInfiltration Airflow Stats Nominal, BUILDING STORY 4 THERMALZONE OFFICE WHOLEBUILDING - MD OFFICE B END_A - STORY MID4 INFILTRATION,ALWAYS ON DISCRETE,BUILDING STORY 4 THERMALZONE,14837.91,798.6,0.186,1.254E-005,8.714E-005,1.505E-002,0.000,0.000,0.224,0.000
 ZoneInfiltration Airflow Stats Nominal, BUILDING STORY 4 THERMALZONE OFFICE WHOLEBUILDING - MD OFFICE B END_B - STORY MID4 INFILTRATION,ALWAYS ON DISCRETE,BUILDING STORY 4 THERMALZONE,14837.91,798.6,0.186,1.254E-005,8.714E-005,1.505E-002,0.000,0.000,0.224,0.000
 ZoneInfiltration Airflow Stats Nominal, BUILDING STORY 4 THERMALZONE OFFICE WHOLEBUILDING - MD OFFICE C  - STORY MID4 INFILTRATION,ALWAYS ON DISCRETE,BUILDING STORY 4 THERMALZONE,14837.91,798.6,0.843,5.680E-005,3.947E-004,6.816E-002,0.000,0.000,0.224,0.000
 ZoneInfiltration Airflow Stats Nominal, BUILDING STORY 4 THERMALZONE OFFICE WHOLEBUILDING - MD OFFICE C END_A - STORY MID4 INFILTRATION,ALWAYS ON DISCRETE,BUILDING STORY 4 THERMALZONE,14837.91,798.6,3.286E-002,2.214E-006,1.539E-005,2.657E-003,0.000,0.000,0.224,0.000
 ZoneInfiltration Airflow Stats Nominal, BUILDING STORY 4 THERMALZONE OFFICE WHOLEBUILDING - MD OFFICE C END_B - STORY MID4 INFILTRATION,ALWAYS ON DISCRETE,BUILDING STORY 4 THERMALZONE,14837.91,798.6,3.286E-002,2.214E-006,1.539E-005,2.657E-003,0.000,0.000,0.224,0.000
 ZoneInfiltration Airflow Stats Nominal, BUILDING STORY 1 THERMALZONE LARGEHOTEL GUESTROOM A  - STORY MID5 INFILTRATION,ALWAYS ON DISCRETE,BUILDING STORY 1 THERMALZONE,14837.91,605.7,0.723,4.873E-005,3.387E-004,5.848E-002,0.000,0.000,0.224,0.000
 ZoneInfiltration Airflow Stats Nominal, BUILDING STORY 1 THERMALZONE LARGEHOTEL GUESTROOM A END_A - STORY MID5 INFILTRATION,ALWAYS ON DISCRETE,BUILDING STORY 1 THERMALZONE,14837.91,605.7,3.286E-002,2.214E-006,1.539E-005,2.657E-003,0.000,0.000,0.224,0.000
 ZoneInfiltration Airflow Stats Nominal, BUILDING STORY 1 THERMALZONE LARGEHOTEL GUESTROOM B END_A - STORY MID5 INFILTRATION,ALWAYS ON DISCRETE,BUILDING STORY 1 THERMALZONE,14837.91,605.7,0.186,1.254E-005,8.714E-005,1.505E-002,0.000,0.000,0.224,0.000
 ZoneInfiltration Airflow Stats Nominal, BUILDING STORY 1 THERMALZONE LARGEHOTEL GUESTROOM C  - STORY MID5 INFILTRATION,ALWAYS ON DISCRETE,BUILDING STORY 1 THERMALZONE,14837.91,605.7,0.723,4.873E-005,3.387E-004,5.848E-002,0.000,0.000,0.224,0.000
 ZoneInfiltration Airflow Stats Nominal, BUILDING STORY 1 THERMALZONE LARGEHOTEL GUESTROOM C END_A - STORY MID5 INFILTRATION,ALWAYS ON DISCRETE,BUILDING STORY 1 THERMALZONE,14837.91,605.7,3.286E-002,2.214E-006,1.539E-005,2.657E-003,0.000,0.000,0.224,0.000
 ZoneInfiltration Airflow Stats Nominal, BUILDING STORY 1 THERMALZONE OFFICE WHOLEBUILDING - MD OFFICE A  - STORY MID5 INFILTRATION,ALWAYS ON DISCRETE,BUILDING STORY 1 THERMALZONE,14837.91,605.7,0.120,8.065E-006,5.605E-005,9.678E-003,0.000,0.000,0.224,0.000
 ZoneInfiltration Airflow Stats Nominal, BUILDING STORY 1 THERMALZONE OFFICE WHOLEBUILDING - MD OFFICE A END_B - STORY MID5 INFILTRATION,ALWAYS ON DISCRETE,BUILDING STORY 1 THERMALZONE,14837.91,605.7,3.286E-002,2.214E-006,1.539E-005,2.657E-003,0.000,0.000,0.224,0.000
 ZoneInfiltration Airflow Stats Nominal, BUILDING STORY 1 THERMALZONE OFFICE WHOLEBUILDING - MD OFFICE B END_B - STORY MID5 INFILTRATION,ALWAYS ON DISCRETE,BUILDING STORY 1 THERMALZONE,14837.91,605.7,0.186,1.254E-005,8.714E-005,1.505E-002,0.000,0.000,0.224,0.000
 ZoneInfiltration Airflow Stats Nominal, BUILDING STORY 1 THERMALZONE OFFICE WHOLEBUILDING - MD OFFICE C  - STORY MID5 INFILTRATION,ALWAYS ON DISCRETE,BUILDING STORY 1 THERMALZONE,14837.91,605.7,0.120,8.065E-006,5.605E-005,9.678E-003,0.000,0.000,0.224,0.000
 ZoneInfiltration Airflow Stats Nominal, BUILDING STORY 1 THERMALZONE OFFICE WHOLEBUILDING - MD OFFICE C END_B - STORY MID5 INFILTRATION,ALWAYS ON DISCRETE,BUILDING STORY 1 THERMALZONE,14837.91,605.7,3.286E-002,2.214E-006,1.539E-005,2.657E-003,0.000,0.000,0.224,0.000
 ZoneInfiltration Airflow Stats Nominal, BUILDING STORY 3 THERMALZONE FULLSERVICERESTAURANT DINING A  - STORY MID6 INFILTRATION,ALWAYS ON DISCRETE,BUILDING STORY 3 THERMALZONE,14837.91,5391.3,0.381,2.571E-005,1.787E-004,3.085E-002,0.000,0.000,0.224,0.000
 ZoneInfiltration Airflow Stats Nominal, BUILDING STORY 3 THERMALZONE FULLSERVICERESTAURANT DINING A END_B - STORY MID6 INFILTRATION,ALWAYS ON DISCRETE,BUILDING STORY 3 THERMALZONE,14837.91,5391.3,3.286E-002,2.214E-006,1.539E-005,2.657E-003,0.000,0.000,0.224,0.000
 ZoneInfiltration Airflow Stats Nominal, BUILDING STORY 3 THERMALZONE FULLSERVICERESTAURANT DINING B END_B - STORY MID6 INFILTRATION,ALWAYS ON DISCRETE,BUILDING STORY 3 THERMALZONE,14837.91,5391.3,0.186,1.254E-005,8.714E-005,1.505E-002,0.000,0.000,0.224,0.000
 ZoneInfiltration Airflow Stats Nominal, BUILDING STORY 3 THERMALZONE FULLSERVICERESTAURANT DINING C  - STORY MID6 INFILTRATION,ALWAYS ON DISCRETE,BUILDING STORY 3 THERMALZONE,14837.91,5391.3,0.381,2.571E-005,1.787E-004,3.085E-002,0.000,0.000,0.224,0.000
 ZoneInfiltration Airflow Stats Nominal, BUILDING STORY 3 THERMALZONE FULLSERVICERESTAURANT DINING C END_B - STORY MID6 INFILTRATION,ALWAYS ON DISCRETE,BUILDING STORY 3 THERMALZONE,14837.91,5391.3,3.286E-002,2.214E-006,1.539E-005,2.657E-003,0.000,0.000,0.224,0.000
 ZoneInfiltration Airflow Stats Nominal, BUILDING STORY 3 THERMALZONE LARGEHOTEL GUESTROOM A  - STORY MID6 INFILTRATION,ALWAYS ON DISCRETE,BUILDING STORY 3 THERMALZONE,14837.91,5391.3,0.461,3.109E-005,2.161E-004,3.731E-002,0.000,0.000,0.224,0.000
 ZoneInfiltration Airflow Stats Nominal, BUILDING STORY 3 THERMALZONE LARGEHOTEL GUESTROOM A END_A - STORY MID6 INFILTRATION,ALWAYS ON DISCRETE,BUILDING STORY 3 THERMALZONE,14837.91,5391.3,3.286E-002,2.214E-006,1.539E-005,2.657E-003,0.000,0.000,0.224,0.000
 ZoneInfiltration Airflow Stats Nominal, BUILDING STORY 3 THERMALZONE LARGEHOTEL GUESTROOM B END_A - STORY MID6 INFILTRATION,ALWAYS ON DISCRETE,BUILDING STORY 3 THERMALZONE,14837.91,5391.3,0.186,1.254E-005,8.714E-005,1.505E-002,0.000,0.000,0.224,0.000
 ZoneInfiltration Airflow Stats Nominal, BUILDING STORY 3 THERMALZONE LARGEHOTEL GUESTROOM C  - STORY MID6 INFILTRATION,ALWAYS ON DISCRETE,BUILDING STORY 3 THERMALZONE,14837.91,5391.3,0.461,3.109E-005,2.161E-004,3.731E-002,0.000,0.000,0.224,0.000
 ZoneInfiltration Airflow Stats Nominal, BUILDING STORY 3 THERMALZONE LARGEHOTEL GUESTROOM C END_A - STORY MID6 INFILTRATION,ALWAYS ON DISCRETE,BUILDING STORY 3 THERMALZONE,14837.91,5391.3,3.286E-002,2.214E-006,1.539E-005,2.657E-003,0.000,0.000,0.224,0.000
 ZoneInfiltration Airflow Stats Nominal, BUILDING STORY 2 THERMALZONE FULLSERVICERESTAURANT DINING A  - STORY TOP INFILTRATION,ALWAYS ON DISCRETE,BUILDING STORY 2 THERMALZONE,14837.91,11180.0,9.369E-002,6.314E-006,4.388E-005,7.577E-003,0.000,0.000,0.224,0.000
 ZoneInfiltration Airflow Stats Nominal, BUILDING STORY 2 THERMALZONE FULLSERVICERESTAURANT DINING A END_A - STORY TOP INFILTRATION,ALWAYS ON DISCRETE,BUILDING STORY 2 THERMALZONE,14837.91,11180.0,3.653E-003,2.462E-007,1.711E-006,2.954E-004,0.000,0.000,0.224,0.000
 ZoneInfiltration Airflow Stats Nominal, BUILDING STORY 2 THERMALZONE FULLSERVICERESTAURANT DINING A END_B - STORY TOP INFILTRATION,ALWAYS ON DISCRETE,BUILDING STORY 2 THERMALZONE,14837.91,11180.0,3.653E-003,2.462E-007,1.711E-006,2.954E-004,0.000,0.000,0.224,0.000
 ZoneInfiltration Airflow Stats Nominal, BUILDING STORY 2 THERMALZONE FULLSERVICERESTAURANT DINING B END_A - STORY TOP INFILTRATION,ALWAYS ON DISCRETE,BUILDING STORY 2 THERMALZONE,14837.91,11180.0,2.068E-002,1.394E-006,9.687E-006,1.673E-003,0.000,0.000,0.224,0.000
 ZoneInfiltration Airflow Stats Nominal, BUILDING STORY 2 THERMALZONE FULLSERVICERESTAURANT DINING B END_B - STORY TOP INFILTRATION,ALWAYS ON DISCRETE,BUILDING STORY 2 THERMALZONE,14837.91,11180.0,2.068E-002,1.394E-006,9.687E-006,1.673E-003,0.000,0.000,0.224,0.000
 ZoneInfiltration Airflow Stats Nominal, BUILDING STORY 2 THERMALZONE FULLSERVICERESTAURANT DINING C  - STORY TOP INFILTRATION,ALWAYS ON DISCRETE,BUILDING STORY 2 THERMALZONE,14837.91,11180.0,9.369E-002,6.314E-006,4.388E-005,7.577E-003,0.000,0.000,0.224,0.000
 ZoneInfiltration Airflow Stats Nominal, BUILDING STORY 2 THERMALZONE FULLSERVICERESTAURANT DINING C END_A - STORY TOP INFILTRATION,ALWAYS ON DISCRETE,BUILDING STORY 2 THERMALZONE,14837.91,11180.0,3.653E-003,2.462E-007,1.711E-006,2.954E-004,0.000,0.000,0.224,0.000
 ZoneInfiltration Airflow Stats Nominal, BUILDING STORY 2 THERMALZONE FULLSERVICERESTAURANT DINING C END_B - STORY TOP INFILTRATION,ALWAYS ON DISCRETE,BUILDING STORY 2 THERMALZONE,14837.91,11180.0,3.653E-003,2.462E-007,1.711E-006,2.954E-004,0.000,0.000,0.224,0.000
! <AirFlow Model>, Simple
 AirFlow Model, Simple
! <RoomAir Model>, Zone Name, Mixing/Mundt/UCSDDV/UCSDCV/UCSDUFI/UCSDUFE/User Defined
RoomAir Model,BUILDING STORY 1 THERMALZONE,Mixing/Well-Stirred
RoomAir Model,BUILDING STORY 2 THERMALZONE,Mixing/Well-Stirred
RoomAir Model,BUILDING STORY 3 THERMALZONE,Mixing/Well-Stirred
RoomAir Model,BUILDING STORY 4 THERMALZONE,Mixing/Well-Stirred
RoomAir Model,BUILDING STORY 5 THERMALZONE,Mixing/Well-Stirred
RoomAir Model,BUILDING STORY 6 THERMALZONE,Mixing/Well-Stirred
RoomAir Model,BUILDING STORY 7 THERMALZONE,Mixing/Well-Stirred
RoomAir Model,BUILDING STORY 8 THERMALZONE,Mixing/Well-Stirred
! <AirflowNetwork Model:Control>, No Multizone or Distribution/Multizone with Distribution/Multizone without Distribution/Multizone with Distribution only during Fan Operation
AirflowNetwork Model:Control,NoMultizoneOrDistribution
! <Zone Volume Capacitance Multiplier>, Sensible Heat Capacity Multiplier, Moisture Capacity Multiplier, Carbon Dioxide Capacity Multiplier, Generic Contaminant Capacity Multiplier
Zone Volume Capacitance Multiplier,   1.000 ,   1.000,   1.000,   1.000
! <Load Timesteps in Zone Design Calculation Averaging Window>, Value
 Load Timesteps in Zone Design Calculation Averaging Window,    1
! <Heating Sizing Factor Information>, Sizing Factor ID, Value
 Heating Sizing Factor Information, Global,   1.2500    
 Heating Sizing Factor Information, Zone BUILDING STORY 1 THERMALZONE,   1.2500    
 Heating Sizing Factor Information, Zone BUILDING STORY 2 THERMALZONE,   1.2500    
 Heating Sizing Factor Information, Zone BUILDING STORY 3 THERMALZONE,   1.2500    
 Heating Sizing Factor Information, Zone BUILDING STORY 4 THERMALZONE,   1.2500    
 Heating Sizing Factor Information, Zone BUILDING STORY 5 THERMALZONE,   1.2500    
 Heating Sizing Factor Information, Zone BUILDING STORY 6 THERMALZONE,   1.2500    
 Heating Sizing Factor Information, Zone BUILDING STORY 7 THERMALZONE,   1.2500    
 Heating Sizing Factor Information, Zone BUILDING STORY 8 THERMALZONE,   1.2500    
! <Cooling Sizing Factor Information>, Sizing Factor ID, Value
 Cooling Sizing Factor Information, Global,   1.1500    
 Cooling Sizing Factor Information, Zone BUILDING STORY 1 THERMALZONE,   1.1500    
 Cooling Sizing Factor Information, Zone BUILDING STORY 2 THERMALZONE,   1.1500    
 Cooling Sizing Factor Information, Zone BUILDING STORY 3 THERMALZONE,   1.1500    
 Cooling Sizing Factor Information, Zone BUILDING STORY 4 THERMALZONE,   1.1500    
 Cooling Sizing Factor Information, Zone BUILDING STORY 5 THERMALZONE,   1.1500    
 Cooling Sizing Factor Information, Zone BUILDING STORY 6 THERMALZONE,   1.1500    
 Cooling Sizing Factor Information, Zone BUILDING STORY 7 THERMALZONE,   1.1500    
 Cooling Sizing Factor Information, Zone BUILDING STORY 8 THERMALZONE,   1.1500    
! <Zone Sizing Information>, Zone Name, Load Type, Calc Des Load {W}, User Des Load {W}, Calc Des Air Flow Rate {m3/s}, User Des Air Flow Rate {m3/s}, Design Day Name, Date/Time of Peak, Temperature at Peak {C}, Humidity Ratio at Peak {kgWater/kgDryAir}, Floor Area {m2}, # Occupants, Calc Outdoor Air Flow Rate {m3/s}, Calc DOAS Heat Addition Rate {W}
 Zone Sizing Information, BUILDING STORY 1 THERMALZONE, Cooling, 192743.09478, 221654.55900, 15.93123, 18.32091, BUFFALO NIAGARA INTL AP ANN CLG .4% CONDNS DB=>MWB, 7/21 17:00:00, 28.99800, 1.33455E-002, 14837.90951, 605.67873, 4.58063, 0.00000
 Zone Sizing Information, BUILDING STORY 1 THERMALZONE, Heating, 116747.60214, 145934.50268, 3.36290, 4.58063, BUFFALO NIAGARA INTL AP ANN HTG 99.6% CONDNS DB, 1/21 22:00:00, -16.30000, 9.24091E-004, 14837.90951, 605.67873, 4.58063, 0.00000
 Zone Sizing Information, BUILDING STORY 2 THERMALZONE, Cooling, 1496668.11471, 1721168.33191, 103.57079, 119.10641, BUFFALO NIAGARA INTL AP ANN CLG .4% CONDNS DB=>MWB, 7/21 07:00:00, 21.83700, 1.33455E-002, 14837.90951, 11179.97501, 105.52721, 0.00000
 Zone Sizing Information, BUILDING STORY 2 THERMALZONE, Heating, 97943.41711, 122429.27139, 4.30627, 105.52721, BUFFALO NIAGARA INTL AP ANN HTG 99.6% CONDNS DB, 1/21 24:00:00, -16.30000, 9.24091E-004, 14837.90951, 11179.97501, 105.52721, 0.00000
 Zone Sizing Information, BUILDING STORY 3 THERMALZONE, Cooling, 848663.16106, 975962.63522, 70.28424, 80.82687, BUFFALO NIAGARA INTL AP ANN CLG .4% CONDNS DB=>MWB, 7/21 17:00:00, 28.99800, 1.33455E-002, 14837.90951, 5391.27016, 50.15383, 0.00000
 Zone Sizing Information, BUILDING STORY 3 THERMALZONE, Heating, 145015.23227, 181269.04034, 4.17704, 50.15383, BUFFALO NIAGARA INTL AP ANN HTG 99.6% CONDNS DB, 1/21 22:00:00, -16.30000, 9.24091E-004, 14837.90951, 5391.27016, 50.15383, 0.00000
 Zone Sizing Information, BUILDING STORY 4 THERMALZONE, Cooling, 480832.76794, 552957.68313, 34.33418, 39.48430, BUFFALO NIAGARA INTL AP ANN CLG .4% CONDNS DB=>MWB, 7/21 08:00:00, 23.41800, 1.33455E-002, 14837.90951, 798.56964, 7.53766, 0.00000
 Zone Sizing Information, BUILDING STORY 4 THERMALZONE, Heating, 281749.15435, 352186.44294, 12.08161, 15.10202, BUFFALO NIAGARA INTL AP ANN HTG 99.6% CONDNS DB, 1/21 08:00:00, -16.30000, 9.24091E-004, 14837.90951, 798.56964, 7.53766, 0.00000
 Zone Sizing Information, BUILDING STORY 5 THERMALZONE, Cooling, 713339.84031, 820340.81636, 50.61210, 58.20391, BUFFALO NIAGARA INTL AP ANN CLG .4% CONDNS DB=>MWB, 7/21 10:00:00, 26.76600, 1.33455E-002, 14837.90951, 1256.35861, 21.94115, 0.00000
 Zone Sizing Information, BUILDING STORY 5 THERMALZONE, Heating, 366288.12137, 457860.15172, 15.54709, 21.94115, BUFFALO NIAGARA INTL AP ANN HTG 99.6% CONDNS DB, 1/21 10:00:00, -16.30000, 9.24091E-004, 14837.90951, 1256.35861, 21.94115, 0.00000
 Zone Sizing Information, BUILDING STORY 6 THERMALZONE, Cooling, 1089979.99031, 1253476.98886, 77.54104, 89.17219, BUFFALO NIAGARA INTL AP ANN CLG .4% CONDNS DB=>MWB, 7/21 10:00:00, 26.76600, 1.33455E-002, 14837.90951, 1191.98126, 24.90571, 0.00000
 Zone Sizing Information, BUILDING STORY 6 THERMALZONE, Heating, 337904.63364, 422380.79206, 14.31455, 24.90571, BUFFALO NIAGARA INTL AP ANN HTG 99.6% CONDNS DB, 1/21 10:00:00, -16.30000, 9.24091E-004, 14837.90951, 1191.98126, 24.90571, 0.00000
 Zone Sizing Information, BUILDING STORY 7 THERMALZONE, Cooling, 795325.02725, 914623.78134, 59.27789, 68.16957, BUFFALO NIAGARA INTL AP ANN CLG .4% CONDNS DB=>MWB, 7/21 17:00:00, 28.99800, 1.33455E-002, 14837.90951, 443.78997, 16.21689, 0.00000
 Zone Sizing Information, BUILDING STORY 7 THERMALZONE, Heating, 166987.79621, 208734.74527, 7.34128, 16.21689, BUFFALO NIAGARA INTL AP ANN HTG 99.6% CONDNS DB, 1/21 22:00:00, -16.30000, 9.24091E-004, 14837.90951, 443.78997, 16.21689, 0.00000
 Zone Sizing Information, BUILDING STORY 8 THERMALZONE, Cooling, 1224062.35170, 1407671.70446, 91.26957, 104.96000, BUFFALO NIAGARA INTL AP ANN CLG .4% CONDNS DB=>MWB, 7/21 15:00:00, 30.30000, 1.33455E-002, 14837.90951, 4980.42815, 45.79445, 0.00000
 Zone Sizing Information, BUILDING STORY 8 THERMALZONE, Heating, 868573.30649, 1085716.63311, 38.16542, 47.70677, BUFFALO NIAGARA INTL AP ANN HTG 99.6% CONDNS DB, 1/21 22:00:00, -16.30000, 9.24091E-004, 14837.90951, 4980.42815, 45.79445, 0.00000
! <System Sizing Information>, System Name, Load Type, Peak Load Kind, User Design Capacity, Calc Des Air Flow Rate [m3/s], User Des Air Flow Rate [m3/s], Design Day Name, Date/Time of Peak
 System Sizing Information, 1 ZONE VAV, Cooling, Sensible, 2403603.42, 123.44249, 123.44249, BUFFALO NIAGARA INTL AP ANN CLG .4% CONDNS DB=>MWB, 7/21 00:00:00
 System Sizing Information, 1 ZONE VAV, Heating, Sensible, 3619687.65, 105.52721, 105.52721, BUFFALO NIAGARA INTL AP ANN HTG 99.6% CONDNS DB, 1/21 01:00:00
 System Sizing Information, 1 ZONE VAV 1, Cooling, Sensible, 557026.83, 39.48430, 39.48430, BUFFALO NIAGARA INTL AP ANN CLG .4% CONDNS DB=>MWB, 7/21 00:00:00
 System Sizing Information, 1 ZONE VAV 1, Heating, Sensible, 258549.12, 15.10202, 15.10202, BUFFALO NIAGARA INTL AP ANN HTG 99.6% CONDNS DB, 1/21 01:00:00
 System Sizing Information, 1 ZONE VAV 2, Cooling, Sensible, 859783.64, 58.20391, 58.20391, BUFFALO NIAGARA INTL AP ANN CLG .4% CONDNS DB=>MWB, 7/21 00:00:00
 System Sizing Information, 1 ZONE VAV 2, Heating, Sensible, 752603.01, 21.94115, 21.94115, BUFFALO NIAGARA INTL AP ANN HTG 99.6% CONDNS DB, 1/21 01:00:00
 System Sizing Information, 1 ZONE VAV 3, Cooling, Sensible, 1296103.58, 89.17219, 89.17219, BUFFALO NIAGARA INTL AP ANN CLG .4% CONDNS DB=>MWB, 7/21 00:00:00
 System Sizing Information, 1 ZONE VAV 3, Heating, Sensible, 854290.63, 24.90571, 24.90571, BUFFALO NIAGARA INTL AP ANN HTG 99.6% CONDNS DB, 1/21 01:00:00
 System Sizing Information, 1 ZONE VAV 4, Cooling, Sensible, 1015342.40, 68.16957, 68.16957, BUFFALO NIAGARA INTL AP ANN CLG .4% CONDNS DB=>MWB, 7/21 00:00:00
 System Sizing Information, 1 ZONE VAV 4, Heating, Sensible, 556255.31, 16.21689, 16.21689, BUFFALO NIAGARA INTL AP ANN HTG 99.6% CONDNS DB, 1/21 01:00:00
 System Sizing Information, 1 ZONE VAV 5, Cooling, Sensible, 1727787.52, 104.96000, 104.96000, BUFFALO NIAGARA INTL AP ANN CLG .4% CONDNS DB=>MWB, 7/21 00:00:00
 System Sizing Information, 1 ZONE VAV 5, Heating, Sensible, 1553832.96, 47.70677, 47.70677, BUFFALO NIAGARA INTL AP ANN HTG 99.6% CONDNS DB, 1/21 05:00:00
! <Component Sizing Information>, Component Type, Component Name, Input Field Description, Value
 Component Sizing Information, ZoneHVAC:PackagedTerminalAirConditioner, BUILDING STORY 1 THERMALZONE PTAC, Design Size Cooling Supply Air Flow Rate [m3/s], 18.32091
 Component Sizing Information, ZoneHVAC:PackagedTerminalAirConditioner, BUILDING STORY 1 THERMALZONE PTAC, Design Size Heating Supply Air Flow Rate [m3/s], 18.32091
 Component Sizing Information, ZoneHVAC:PackagedTerminalAirConditioner, BUILDING STORY 1 THERMALZONE PTAC, Design Size No Load Supply Air Flow Rate [m3/s], 18.32091
 Component Sizing Information, ZoneHVAC:PackagedTerminalAirConditioner, BUILDING STORY 1 THERMALZONE PTAC, Design Size Outdoor Air Flow Rate During Cooling Operation [m3/s], 4.58063
 Component Sizing Information, ZoneHVAC:PackagedTerminalAirConditioner, BUILDING STORY 1 THERMALZONE PTAC, Design Size Outdoor Air Flow Rate During Heating Operation [m3/s], 4.58063
 Component Sizing Information, ZoneHVAC:PackagedTerminalAirConditioner, BUILDING STORY 1 THERMALZONE PTAC, Design Size Outdoor Air Flow Rate When No Cooling or Heating is Needed [m3/s], 4.58063
 Component Sizing Information, Coil:Heating:Water, HOT WATER LOOP WATER HTG COIL, Design Size Rated Capacity [W], 840556.04550
 Component Sizing Information, Coil:Heating:Water, HOT WATER LOOP WATER HTG COIL, Design Size Maximum Water Flow Rate [m3/s], 1.83853E-002
 Component Sizing Information, Coil:Heating:Water, HOT WATER LOOP WATER HTG COIL, Design Size U-Factor Times Area Value [W/K], 19609.65475
! <Water Heating Coil Capacity Information>,Component Type,Name,Nominal Total Capacity {W}
Water Heating Coil Capacity Information,Coil:Heating:Water,HOT WATER LOOP WATER HTG COIL,783037.34
 Component Sizing Information, Coil:Cooling:DX:SingleSpeed, BUILDING STORY 1 THERMALZONE PTAC 1SPD DX AC CLG COIL, Design Size Rated Air Flow Rate [m3/s], 18.32091
 Component Sizing Information, Coil:Cooling:DX:SingleSpeed, BUILDING STORY 1 THERMALZONE PTAC 1SPD DX AC CLG COIL, Design Size Gross Rated Total Cooling Capacity [W], 354405.01882
 Component Sizing Information, Coil:Cooling:DX:SingleSpeed, BUILDING STORY 1 THERMALZONE PTAC 1SPD DX AC CLG COIL, Design Size Gross Rated Sensible Heat Ratio, 0.78561
! <DX Cooling Coil Standard Rating Information>, Component Type, Component Name, Standard Rating (Net) Cooling Capacity {W}, Standard Rated Net COP {W/W}, EER {Btu/W-h}, SEER {Btu/W-h}, IEER {Btu/W-h}
 DX Cooling Coil Standard Rating Information, Coil:Cooling:DX:SingleSpeed, BUILDING STORY 1 THERMALZONE PTAC 1SPD DX AC CLG COIL, 340180.5, 2.57, 8.77, 9.31, 8.92
 Component Sizing Information, Fan:ConstantVolume, BUILDING STORY 1 THERMALZONE PTAC FAN, Design Size Maximum Flow Rate [m3/s], 18.32091
 Component Sizing Information, AirTerminal:SingleDuct:VAV:Reheat, BUILDING STORY 2 THERMALZONE VAV TERMINAL, Design Size Maximum Air Flow Rate [m3/s], 119.10641
 Component Sizing Information, AirTerminal:SingleDuct:VAV:Reheat, BUILDING STORY 2 THERMALZONE VAV TERMINAL, Design Size Constant Minimum Air Flow Fraction, 9.49276E-002
 Component Sizing Information, AirTerminal:SingleDuct:VAV:Reheat, BUILDING STORY 2 THERMALZONE VAV TERMINAL, User-Specified Constant Minimum Air Flow Fraction, 0.70000
 Component Sizing Information, AirTerminal:SingleDuct:VAV:Reheat, BUILDING STORY 2 THERMALZONE VAV TERMINAL, Design Size Minimum Air Flow Rate [m3/s], 83.37449
 Component Sizing Information, AirTerminal:SingleDuct:VAV:Reheat, BUILDING STORY 2 THERMALZONE VAV TERMINAL, Design Size Maximum Flow per Zone Floor Area during Reheat [m3/s-m2], 5.61902E-003
 Component Sizing Information, AirTerminal:SingleDuct:VAV:Reheat, BUILDING STORY 2 THERMALZONE VAV TERMINAL, Design Size Maximum Flow Fraction during Reheat [], 0.70000
 Component Sizing Information, AirTerminal:SingleDuct:VAV:Reheat, BUILDING STORY 2 THERMALZONE VAV TERMINAL, Design Size Maximum Reheat Water Flow Rate [m3/s], 2.06211E-002
 Component Sizing Information, AirTerminal:SingleDuct:VAV:Reheat, BUILDING STORY 2 THERMALZONE VAV TERMINAL, Design Size Reheat Coil Sizing Air Volume Flow Rate [m3/s], 83.37449
 Component Sizing Information, AirTerminal:SingleDuct:VAV:Reheat, BUILDING STORY 2 THERMALZONE VAV TERMINAL, Design Size Reheat Coil Sizing Inlet Air Temperature [C], 12.77778
 Component Sizing Information, AirTerminal:SingleDuct:VAV:Reheat, BUILDING STORY 2 THERMALZONE VAV TERMINAL, Design Size Reheat Coil Sizing Inlet Air Humidity Ratio [kgWater/kgDryAir], 8.00000E-003
 Component Sizing Information, Coil:Heating:Water, BUILDING STORY 2 THERMALZONE REHEAT COIL, Design Size Rated Capacity [W], 942771.87499
 Component Sizing Information, Coil:Heating:Water, BUILDING STORY 2 THERMALZONE REHEAT COIL, Design Size Maximum Water Flow Rate [m3/s], 2.06211E-002
 Component Sizing Information, Coil:Heating:Water, BUILDING STORY 2 THERMALZONE REHEAT COIL, Design Size U-Factor Times Area Value [W/K], 16623.17109
Water Heating Coil Capacity Information,Coil:Heating:Water,BUILDING STORY 2 THERMALZONE REHEAT COIL,891158.57
 Component Sizing Information, ZoneHVAC:PackagedTerminalAirConditioner, BUILDING STORY 3 THERMALZONE PTAC, Design Size Cooling Supply Air Flow Rate [m3/s], 80.82687
 Component Sizing Information, ZoneHVAC:PackagedTerminalAirConditioner, BUILDING STORY 3 THERMALZONE PTAC, Design Size Heating Supply Air Flow Rate [m3/s], 80.82687
 Component Sizing Information, ZoneHVAC:PackagedTerminalAirConditioner, BUILDING STORY 3 THERMALZONE PTAC, Design Size No Load Supply Air Flow Rate [m3/s], 80.82687
 Component Sizing Information, ZoneHVAC:PackagedTerminalAirConditioner, BUILDING STORY 3 THERMALZONE PTAC, Design Size Outdoor Air Flow Rate During Cooling Operation [m3/s], 50.15383
 Component Sizing Information, ZoneHVAC:PackagedTerminalAirConditioner, BUILDING STORY 3 THERMALZONE PTAC, Design Size Outdoor Air Flow Rate During Heating Operation [m3/s], 50.15383
 Component Sizing Information, ZoneHVAC:PackagedTerminalAirConditioner, BUILDING STORY 3 THERMALZONE PTAC, Design Size Outdoor Air Flow Rate When No Cooling or Heating is Needed [m3/s], 50.15383
 Component Sizing Information, Coil:Heating:Water, HOT WATER LOOP WATER HTG COIL 1, Design Size Rated Capacity [W], 5045362.17099
 Component Sizing Information, Coil:Heating:Water, HOT WATER LOOP WATER HTG COIL 1, Design Size Maximum Water Flow Rate [m3/s], 0.11036
 Component Sizing Information, Coil:Heating:Water, HOT WATER LOOP WATER HTG COIL 1, Design Size U-Factor Times Area Value [W/K], 104675.20495
Water Heating Coil Capacity Information,Coil:Heating:Water,HOT WATER LOOP WATER HTG COIL 1,3935924.74
 Component Sizing Information, Coil:Cooling:DX:SingleSpeed, BUILDING STORY 3 THERMALZONE PTAC 1SPD DX AC CLG COIL, Design Size Rated Air Flow Rate [m3/s], 80.82687
 Component Sizing Information, Coil:Cooling:DX:SingleSpeed, BUILDING STORY 3 THERMALZONE PTAC 1SPD DX AC CLG COIL, Design Size Gross Rated Total Cooling Capacity [W], 2007123.77472
 Component Sizing Information, Coil:Cooling:DX:SingleSpeed, BUILDING STORY 3 THERMALZONE PTAC 1SPD DX AC CLG COIL, Design Size Gross Rated Sensible Heat Ratio, 0.69808
 DX Cooling Coil Standard Rating Information, Coil:Cooling:DX:SingleSpeed, BUILDING STORY 3 THERMALZONE PTAC 1SPD DX AC CLG COIL, 1944297.8, 2.66, 9.07, 9.63, 9.38
 Component Sizing Information, Fan:ConstantVolume, BUILDING STORY 3 THERMALZONE PTAC FAN, Design Size Maximum Flow Rate [m3/s], 80.82687
 Component Sizing Information, AirTerminal:SingleDuct:VAV:Reheat, BUILDING STORY 4 THERMALZONE VAV TERMINAL, Design Size Maximum Air Flow Rate [m3/s], 39.48430
 Component Sizing Information, AirTerminal:SingleDuct:VAV:Reheat, BUILDING STORY 4 THERMALZONE VAV TERMINAL, Design Size Constant Minimum Air Flow Fraction, 0.28635
 Component Sizing Information, AirTerminal:SingleDuct:VAV:Reheat, BUILDING STORY 4 THERMALZONE VAV TERMINAL, User-Specified Constant Minimum Air Flow Fraction, 0.30000
 Component Sizing Information, AirTerminal:SingleDuct:VAV:Reheat, BUILDING STORY 4 THERMALZONE VAV TERMINAL, Design Size Minimum Air Flow Rate [m3/s], 11.84529
 Component Sizing Information, AirTerminal:SingleDuct:VAV:Reheat, BUILDING STORY 4 THERMALZONE VAV TERMINAL, Design Size Maximum Flow per Zone Floor Area during Reheat [m3/s-m2], 7.98313E-004
 Component Sizing Information, AirTerminal:SingleDuct:VAV:Reheat, BUILDING STORY 4 THERMALZONE VAV TERMINAL, Design Size Maximum Flow Fraction during Reheat [], 0.30000
 Component Sizing Information, AirTerminal:SingleDuct:VAV:Reheat, BUILDING STORY 4 THERMALZONE VAV TERMINAL, Design Size Maximum Reheat Water Flow Rate [m3/s], 1.08194E-002
 Component Sizing Information, AirTerminal:SingleDuct:VAV:Reheat, BUILDING STORY 4 THERMALZONE VAV TERMINAL, Design Size Reheat Coil Sizing Air Volume Flow Rate [m3/s], 15.10202
 Component Sizing Information, AirTerminal:SingleDuct:VAV:Reheat, BUILDING STORY 4 THERMALZONE VAV TERMINAL, Design Size Reheat Coil Sizing Inlet Air Temperature [C], 12.77778
 Component Sizing Information, AirTerminal:SingleDuct:VAV:Reheat, BUILDING STORY 4 THERMALZONE VAV TERMINAL, Design Size Reheat Coil Sizing Inlet Air Humidity Ratio [kgWater/kgDryAir], 8.00000E-003
 Component Sizing Information, Coil:Heating:Water, BUILDING STORY 4 THERMALZONE REHEAT COIL, Design Size Rated Capacity [W], 494651.17721
 Component Sizing Information, Coil:Heating:Water, BUILDING STORY 4 THERMALZONE REHEAT COIL, Design Size Maximum Water Flow Rate [m3/s], 1.08194E-002
 Component Sizing Information, Coil:Heating:Water, BUILDING STORY 4 THERMALZONE REHEAT COIL, Design Size U-Factor Times Area Value [W/K], 10287.16357
Water Heating Coil Capacity Information,Coil:Heating:Water,BUILDING STORY 4 THERMALZONE REHEAT COIL,441278.45
 Component Sizing Information, AirTerminal:SingleDuct:VAV:Reheat, BUILDING STORY 5 THERMALZONE VAV TERMINAL, Design Size Maximum Air Flow Rate [m3/s], 58.20391
 Component Sizing Information, AirTerminal:SingleDuct:VAV:Reheat, BUILDING STORY 5 THERMALZONE VAV TERMINAL, Design Size Constant Minimum Air Flow Fraction, 0.19426
 Component Sizing Information, AirTerminal:SingleDuct:VAV:Reheat, BUILDING STORY 5 THERMALZONE VAV TERMINAL, User-Specified Constant Minimum Air Flow Fraction, 0.70000
 Component Sizing Information, AirTerminal:SingleDuct:VAV:Reheat, BUILDING STORY 5 THERMALZONE VAV TERMINAL, Design Size Minimum Air Flow Rate [m3/s], 40.74274
 Component Sizing Information, AirTerminal:SingleDuct:VAV:Reheat, BUILDING STORY 5 THERMALZONE VAV TERMINAL, Design Size Maximum Flow per Zone Floor Area during Reheat [m3/s-m2], 2.74585E-003
 Component Sizing Information, AirTerminal:SingleDuct:VAV:Reheat, BUILDING STORY 5 THERMALZONE VAV TERMINAL, Design Size Maximum Flow Fraction during Reheat [], 0.70000
 Component Sizing Information, AirTerminal:SingleDuct:VAV:Reheat, BUILDING STORY 5 THERMALZONE VAV TERMINAL, Design Size Maximum Reheat Water Flow Rate [m3/s], 1.84607E-002
 Component Sizing Information, AirTerminal:SingleDuct:VAV:Reheat, BUILDING STORY 5 THERMALZONE VAV TERMINAL, Design Size Reheat Coil Sizing Air Volume Flow Rate [m3/s], 40.74274
 Component Sizing Information, AirTerminal:SingleDuct:VAV:Reheat, BUILDING STORY 5 THERMALZONE VAV TERMINAL, Design Size Reheat Coil Sizing Inlet Air Temperature [C], 12.77778
 Component Sizing Information, AirTerminal:SingleDuct:VAV:Reheat, BUILDING STORY 5 THERMALZONE VAV TERMINAL, Design Size Reheat Coil Sizing Inlet Air Humidity Ratio [kgWater/kgDryAir], 8.00000E-003
 Component Sizing Information, Coil:Heating:Water, BUILDING STORY 5 THERMALZONE REHEAT COIL, Design Size Rated Capacity [W], 844003.23651
 Component Sizing Information, Coil:Heating:Water, BUILDING STORY 5 THERMALZONE REHEAT COIL, Design Size Maximum Water Flow Rate [m3/s], 1.84607E-002
 Component Sizing Information, Coil:Heating:Water, BUILDING STORY 5 THERMALZONE REHEAT COIL, Design Size U-Factor Times Area Value [W/K], 15929.72360
Water Heating Coil Capacity Information,Coil:Heating:Water,BUILDING STORY 5 THERMALZONE REHEAT COIL,798450.50
 Component Sizing Information, AirTerminal:SingleDuct:VAV:Reheat, BUILDING STORY 6 THERMALZONE VAV TERMINAL, Design Size Maximum Air Flow Rate [m3/s], 89.17219
 Component Sizing Information, AirTerminal:SingleDuct:VAV:Reheat, BUILDING STORY 6 THERMALZONE VAV TERMINAL, Design Size Constant Minimum Air Flow Fraction, 0.12679
 Component Sizing Information, AirTerminal:SingleDuct:VAV:Reheat, BUILDING STORY 6 THERMALZONE VAV TERMINAL, User-Specified Constant Minimum Air Flow Fraction, 0.70000
 Component Sizing Information, AirTerminal:SingleDuct:VAV:Reheat, BUILDING STORY 6 THERMALZONE VAV TERMINAL, Design Size Minimum Air Flow Rate [m3/s], 62.42053
 Component Sizing Information, AirTerminal:SingleDuct:VAV:Reheat, BUILDING STORY 6 THERMALZONE VAV TERMINAL, Design Size Maximum Flow per Zone Floor Area during Reheat [m3/s-m2], 4.20683E-003
 Component Sizing Information, AirTerminal:SingleDuct:VAV:Reheat, BUILDING STORY 6 THERMALZONE VAV TERMINAL, Design Size Maximum Flow Fraction during Reheat [], 0.70000
 Component Sizing Information, AirTerminal:SingleDuct:VAV:Reheat, BUILDING STORY 6 THERMALZONE VAV TERMINAL, Design Size Maximum Reheat Water Flow Rate [m3/s], 2.21773E-002
 Component Sizing Information, AirTerminal:SingleDuct:VAV:Reheat, BUILDING STORY 6 THERMALZONE VAV TERMINAL, Design Size Reheat Coil Sizing Air Volume Flow Rate [m3/s], 62.42053
 Component Sizing Information, AirTerminal:SingleDuct:VAV:Reheat, BUILDING STORY 6 THERMALZONE VAV TERMINAL, Design Size Reheat Coil Sizing Inlet Air Temperature [C], 12.77778
[...]
 Component Sizing Information, PlantLoop, CHILLED WATER LOOP, Plant Loop Volume [m3], 66.72313
 Component Sizing Information, Pump:ConstantSpeed, CHILLED WATER LOOP PRIMARY PUMP, Design Flow Rate [m3/s], 0.55603
 Component Sizing Information, Pump:ConstantSpeed, CHILLED WATER LOOP PRIMARY PUMP, Design Power Consumption [W], 35512.80428
 Component Sizing Information, Chiller:Electric:EIR, 90.1-2004 WATERCOOLED  ROTARY SCREW CHILLER 0, Design Size Reference Chilled Water Flow Rate [m3/s], 0.55603
 Component Sizing Information, Chiller:Electric:EIR, 90.1-2004 WATERCOOLED  ROTARY SCREW CHILLER 0, Design Size Reference Capacity [W], 13095887.74163
 Component Sizing Information, Chiller:Electric:EIR, 90.1-2004 WATERCOOLED  ROTARY SCREW CHILLER 0, Design Size Reference Condenser Fluid Flow Rate [m3/s], 0.66654
! <Chiller Standard Rating Information>, Component Type, Component Name, IPLV in SI Units {W/W}, IPLV in IP Units {Btu/W-h}
 Chiller Standard Rating Information, Chiller:Electric:EIR, 90.1-2004 WATERCOOLED  ROTARY SCREW CHILLER 0, 7.88, 26.88
 Component Sizing Information, PlantLoop, FULLSERVICERESTAURANT KITCHEN - 90.1-2004 SERVICE WATER BOOSTER LOOP, Maximum Loop Flow Rate [m3/s], 4.87392E-003
 Component Sizing Information, PlantLoop, FULLSERVICERESTAURANT KITCHEN - 90.1-2004 SERVICE WATER BOOSTER LOOP, Plant Loop Volume [m3], 0.58487
 Component Sizing Information, Pump:VariableSpeed, BOOSTER WATER LOOP PUMP, Design Flow Rate [m3/s], 4.87392E-003
 Component Sizing Information, HeatExchanger:FluidToFluid, HX FOR BOOSTER WATER HEATING, Loop Supply Side Design Fluid Flow Rate [m3/s], 4.87392E-003
 Component Sizing Information, HeatExchanger:FluidToFluid, HX FOR BOOSTER WATER HEATING, Loop Demand Side Design Fluid Flow Rate [m3/s], 4.87392E-003
 Component Sizing Information, HeatExchanger:FluidToFluid, HX FOR BOOSTER WATER HEATING, Heat Exchanger U-Factor Times Area Value [W/C], 5939.50479
 Component Sizing Information, HeatExchanger:FluidToFluid, HX FOR BOOSTER WATER HEATING, Loop-to-loop Temperature Difference Used to Size Heat Exchanger U-Factor Times Area Value [C], 17.22222
 Component Sizing Information, WaterHeater:Mixed, 6.0GAL ELECTRICITY BOOSTER WATER HEATER - 934KBTU/HR, Use Side Design Flow Rate [m3/s], 4.87392E-003
 Component Sizing Information, PlantComponent:TemperatureSource, MAINS WATER MAKEUP FOR SWH BOOSTER, Design Size Design Fluid Flow Rate [m3/s], 2.76189E-002
 Component Sizing Information, PlantLoop, LARGEHOTEL KITCHEN - 90.1-2004 SERVICE WATER BOOSTER LOOP, Maximum Loop Flow Rate [m3/s], 3.72143E-004
 Component Sizing Information, PlantLoop, LARGEHOTEL KITCHEN - 90.1-2004 SERVICE WATER BOOSTER LOOP, Plant Loop Volume [m3], 4.46572E-002
 Component Sizing Information, Pump:VariableSpeed, BOOSTER WATER LOOP PUMP 1, Design Flow Rate [m3/s], 3.72143E-004
 Component Sizing Information, HeatExchanger:FluidToFluid, HX FOR BOOSTER WATER HEATING 1, Loop Supply Side Design Fluid Flow Rate [m3/s], 3.72143E-004
 Component Sizing Information, HeatExchanger:FluidToFluid, HX FOR BOOSTER WATER HEATING 1, Loop Demand Side Design Fluid Flow Rate [m3/s], 3.72143E-004
 Component Sizing Information, HeatExchanger:FluidToFluid, HX FOR BOOSTER WATER HEATING 1, Heat Exchanger U-Factor Times Area Value [W/C], 453.50442
 Component Sizing Information, HeatExchanger:FluidToFluid, HX FOR BOOSTER WATER HEATING 1, Loop-to-loop Temperature Difference Used to Size Heat Exchanger U-Factor Times Area Value [C], 17.22222
 Component Sizing Information, WaterHeater:Mixed, 6.0GAL ELECTRICITY BOOSTER WATER HEATER - 71KBTU/HR, Use Side Design Flow Rate [m3/s], 3.72143E-004
 Component Sizing Information, PlantComponent:TemperatureSource, MAINS WATER MAKEUP FOR SWH BOOSTER 1, Design Size Design Fluid Flow Rate [m3/s], 2.10881E-003
 Component Sizing Information, PlantLoop, CONDENSER WATER LOOP, Maximum Loop Flow Rate [m3/s], 0.66654
 Component Sizing Information, PlantLoop, CONDENSER WATER LOOP, Plant Loop Volume [m3], 79.98478
 Component Sizing Information, Pump:ConstantSpeed, CONDENSER WATER LOOP CONSTANT PUMP, Design Flow Rate [m3/s], 0.66654
 Component Sizing Information, Pump:ConstantSpeed, CONDENSER WATER LOOP CONSTANT PUMP, Design Power Consumption [W], 141052.58486
 Component Sizing Information, CoolingTower:TwoSpeed, PROPELLER OR AXIAL TWOSPEED FAN OPEN COOLING TOWER, Design Water Flow Rate [m3/s], 0.66654
 Component Sizing Information, CoolingTower:TwoSpeed, PROPELLER OR AXIAL TWOSPEED FAN OPEN COOLING TOWER, Fan Power at High Fan Speed [W], 162503.74180
 Component Sizing Information, CoolingTower:TwoSpeed, PROPELLER OR AXIAL TWOSPEED FAN OPEN COOLING TOWER, Air Flow Rate at High Fan Speed [m3/s], 438.70960
 Component Sizing Information, CoolingTower:TwoSpeed, PROPELLER OR AXIAL TWOSPEED FAN OPEN COOLING TOWER, U-Factor Times Area Value at High Fan Speed [W/C], 917066.04071
 Component Sizing Information, CoolingTower:TwoSpeed, PROPELLER OR AXIAL TWOSPEED FAN OPEN COOLING TOWER, Low Fan Speed Air Flow Rate [m3/s], 219.35480
 Component Sizing Information, CoolingTower:TwoSpeed, PROPELLER OR AXIAL TWOSPEED FAN OPEN COOLING TOWER, Fan Power at Low Fan Speed [W], 26000.59869
 Component Sizing Information, CoolingTower:TwoSpeed, PROPELLER OR AXIAL TWOSPEED FAN OPEN COOLING TOWER, U-Factor Times Area Value at Low Fan Speed [W/K], 550239.62442
 Component Sizing Information, PlantLoop, FULLSERVICERESTAURANT KITCHEN - 90.1-2004 SERVICE WATER LOOP, Maximum Loop Flow Rate [m3/s], 3.57421E-002
 Component Sizing Information, PlantLoop, FULLSERVICERESTAURANT KITCHEN - 90.1-2004 SERVICE WATER LOOP, Plant Loop Volume [m3], 4.28905
 Component Sizing Information, Pump:VariableSpeed, FULLSERVICERESTAURANT KITCHEN - 90.1-2004 SERVICE WATER LOOP WATER MAINS PRESSURE DRIVEN, Design Flow Rate [m3/s], 3.57421E-002
 Component Sizing Information, Pump:VariableSpeed, FULLSERVICERESTAURANT KITCHEN - 90.1-2004 SERVICE WATER LOOP WATER MAINS PRESSURE DRIVEN, Design Power Consumption [W], 4.58232E-005
 Component Sizing Information, WaterHeater:Mixed, 4867GAL NATURALGAS WATER HEATER - 4867KBTU/HR, Use Side Design Flow Rate [m3/s], 3.57421E-002
 Component Sizing Information, PlantLoop, HOT WATER LOOP, Maximum Loop Flow Rate [m3/s], 0.35450
 Component Sizing Information, PlantLoop, HOT WATER LOOP, Plant Loop Volume [m3], 42.53993
 Component Sizing Information, Pump:VariableSpeed, HOT WATER LOOP PUMP, Design Flow Rate [m3/s], 0.35450
 Component Sizing Information, Pump:VariableSpeed, HOT WATER LOOP PUMP, Design Power Consumption [W], 90566.02622
 Component Sizing Information, Boiler:HotWater, BOILER, Design Size Nominal Capacity [W], 16207288.34758
 Component Sizing Information, Boiler:HotWater, BOILER, Design Size Design Water Flow Rate [m3/s], 0.35450
 Component Sizing Information, PlantLoop, LARGEHOTEL KITCHEN - 90.1-2004 SERVICE WATER LOOP, Maximum Loop Flow Rate [m3/s], 2.72905E-003
 Component Sizing Information, PlantLoop, LARGEHOTEL KITCHEN - 90.1-2004 SERVICE WATER LOOP, Plant Loop Volume [m3], 0.32749
 Component Sizing Information, Pump:VariableSpeed, LARGEHOTEL KITCHEN - 90.1-2004 SERVICE WATER LOOP WATER MAINS PRESSURE DRIVEN, Design Flow Rate [m3/s], 2.72905E-003
 Component Sizing Information, Pump:VariableSpeed, LARGEHOTEL KITCHEN - 90.1-2004 SERVICE WATER LOOP WATER MAINS PRESSURE DRIVEN, Design Power Consumption [W], 3.49878E-006
 Component Sizing Information, WaterHeater:Mixed, 372GAL ELECTRICITY WATER HEATER - 372KBTU/HR, Use Side Design Flow Rate [m3/s], 2.72905E-003
 Component Sizing Information, PlantLoop, LARGEHOTEL LAUNDRY - 90.1-2004 SERVICE WATER LOOP, Maximum Loop Flow Rate [m3/s], 7.33047E-004
 Component Sizing Information, PlantLoop, LARGEHOTEL LAUNDRY - 90.1-2004 SERVICE WATER LOOP, Plant Loop Volume [m3], 8.79657E-002
 Component Sizing Information, Pump:VariableSpeed, LARGEHOTEL LAUNDRY - 90.1-2004 SERVICE WATER LOOP WATER MAINS PRESSURE DRIVEN, Design Flow Rate [m3/s], 7.33047E-004
 Component Sizing Information, Pump:VariableSpeed, LARGEHOTEL LAUNDRY - 90.1-2004 SERVICE WATER LOOP WATER MAINS PRESSURE DRIVEN, Design Power Consumption [W], 9.39804E-007
 Component Sizing Information, WaterHeater:Mixed, 732GAL ELECTRICITY WATER HEATER - 732KBTU/HR, Use Side Design Flow Rate [m3/s], 7.33047E-004
 Component Sizing Information, PlantLoop, LARGEHOTEL SHARED SERVICE WATER LOOP, Maximum Loop Flow Rate [m3/s], 6.95199E-004
 Component Sizing Information, PlantLoop, LARGEHOTEL SHARED SERVICE WATER LOOP, Plant Loop Volume [m3], 8.34238E-002
 Component Sizing Information, Pump:ConstantSpeed, LARGEHOTEL SHARED SERVICE WATER LOOP CIRCULATOR PUMP, Design Flow Rate [m3/s], 6.95199E-004
 Component Sizing Information, Pump:ConstantSpeed, LARGEHOTEL SHARED SERVICE WATER LOOP CIRCULATOR PUMP, Design Power Consumption [W], 88.80322
 Component Sizing Information, WaterHeater:Mixed, 555GAL ELECTRICITY WATER HEATER - 555KBTU/HR, Use Side Design Flow Rate [m3/s], 6.95199E-004
 Component Sizing Information, PlantLoop, OFFICE SHARED SERVICE WATER LOOP, Maximum Loop Flow Rate [m3/s], 1.91753E-004
 Component Sizing Information, PlantLoop, OFFICE SHARED SERVICE WATER LOOP, Plant Loop Volume [m3], 2.30103E-002
 Component Sizing Information, Pump:ConstantSpeed, OFFICE SHARED SERVICE WATER LOOP CIRCULATOR PUMP, Design Flow Rate [m3/s], 1.91753E-004
 Component Sizing Information, Pump:ConstantSpeed, OFFICE SHARED SERVICE WATER LOOP CIRCULATOR PUMP, Design Power Consumption [W], 24.49410
 Component Sizing Information, WaterHeater:Mixed, 109GAL ELECTRICITY WATER HEATER - 109KBTU/HR, Use Side Design Flow Rate [m3/s], 1.91753E-004
 Component Sizing Information, PlantLoop, STRIPMALL STRIP MALL - TYPE 1 - 90.1-2004 SERVICE WATER LOOP, Maximum Loop Flow Rate [m3/s], 6.81374E-005
 Component Sizing Information, PlantLoop, STRIPMALL STRIP MALL - TYPE 1 - 90.1-2004 SERVICE WATER LOOP, Plant Loop Volume [m3], 8.17649E-003
 Component Sizing Information, Pump:VariableSpeed, STRIPMALL STRIP MALL - TYPE 1 - 90.1-2004 SERVICE WATER LOOP WATER MAINS PRESSURE DRIVEN, Design Flow Rate [m3/s], 6.81374E-005
 Component Sizing Information, Pump:VariableSpeed, STRIPMALL STRIP MALL - TYPE 1 - 90.1-2004 SERVICE WATER LOOP WATER MAINS PRESSURE DRIVEN, Design Power Consumption [W], 8.73557E-008
 Component Sizing Information, WaterHeater:Mixed, 36X 50GAL ELECTRICITY WATER HEATER - 20KBTU/HR, Use Side Design Flow Rate [m3/s], 6.81374E-005
 Component Sizing Information, PlantLoop, STRIPMALL STRIP MALL - TYPE 2 - 90.1-2004 SERVICE WATER LOOP, Maximum Loop Flow Rate [m3/s], 6.81374E-005
 Component Sizing Information, PlantLoop, STRIPMALL STRIP MALL - TYPE 2 - 90.1-2004 SERVICE WATER LOOP, Plant Loop Volume [m3], 8.17649E-003
 Component Sizing Information, Pump:VariableSpeed, STRIPMALL STRIP MALL - TYPE 2 - 90.1-2004 SERVICE WATER LOOP WATER MAINS PRESSURE DRIVEN, Design Flow Rate [m3/s], 6.81374E-005
 Component Sizing Information, Pump:VariableSpeed, STRIPMALL STRIP MALL - TYPE 2 - 90.1-2004 SERVICE WATER LOOP WATER MAINS PRESSURE DRIVEN, Design Power Consumption [W], 8.73557E-008
 Component Sizing Information, WaterHeater:Mixed, 36X 50GAL ELECTRICITY WATER HEATER - 20KBTU/HR 1, Use Side Design Flow Rate [m3/s], 6.81374E-005
 Component Sizing Information, PlantLoop, STRIPMALL STRIP MALL - TYPE 3 - 90.1-2004 SERVICE WATER LOOP, Maximum Loop Flow Rate [m3/s], 1.34382E-004
 Component Sizing Information, PlantLoop, STRIPMALL STRIP MALL - TYPE 3 - 90.1-2004 SERVICE WATER LOOP, Plant Loop Volume [m3], 1.61259E-002
 Component Sizing Information, Pump:VariableSpeed, STRIPMALL STRIP MALL - TYPE 3 - 90.1-2004 SERVICE WATER LOOP WATER MAINS PRESSURE DRIVEN, Design Flow Rate [m3/s], 1.34382E-004
 Component Sizing Information, Pump:VariableSpeed, STRIPMALL STRIP MALL - TYPE 3 - 90.1-2004 SERVICE WATER LOOP WATER MAINS PRESSURE DRIVEN, Design Power Consumption [W], 1.72285E-007
 Component Sizing Information, WaterHeater:Mixed, 71X 50GAL ELECTRICITY WATER HEATER - 20KBTU/HR, Use Side Design Flow Rate [m3/s], 1.34382E-004
! <Environment>,Environment Name,Environment Type, Start Date, End Date, Start DayOfWeek, Duration {#days}, Source:Start DayOfWeek,  Use Daylight Saving, Use Holidays, Apply Weekend Holiday Rule,  Use Rain Values, Use Snow Values
! <Environment:Special Days>, Special Day Name, Special Day Type, Source, Start Date, Duration {#days}
! <Environment:Daylight Saving>, Daylight Saving Indicator, Source, Start Date, End Date
! <Environment:WarmupDays>, NumberofWarmupDays
Environment,BUFFALO NIAGARA INTL AP ANN CLG .4% CONDNS DB=>MWB,SizingPeriod:DesignDay,07/21,07/21,SummerDesignDay,1,N/A,N/A,N/A,N/A,N/A,N/A
Environment:Daylight Saving,No,SizingPeriod:DesignDay
! <Environment:Design Day Data>, Max Dry-Bulb Temp {C}, Temp Range {dC}, Temp Range Ind Type, Hum Ind Value at Max Temp, Hum Ind Type,Pressure {Pa}, Wind Direction {deg CW from N}, Wind Speed {m/s}, Clearness, Rain, Snow
! <Environment:Design Day Misc>,DayOfYear,ASHRAE A Coeff,ASHRAE B Coeff,ASHRAE C Coeff,Solar Constant-Annual Variation,Eq of Time {minutes}, Solar Declination Angle {deg}, Solar Model
Environment:Design Day Data,30.30,9.30,DefaultMultipliers,98769,240,5.7,0.00,No,No
Environment:Design Day Misc,202,1084.4,0.2082,0.1365,1.0,-6.23,20.6,ASHRAETau
Environment:WarmupDays,  6
! <Tabular Report>,Style,Unit Conversion
Tabular Report,HTML,None
! <Warmup Convergence Information>,Zone Name,Environment Type/Name,Average Warmup Temperature Difference {deltaC},Std Dev Warmup Temperature Difference {deltaC},Max Temperature Pass/Fail Convergence,Min Temperature Pass/Fail Convergence,Average Warmup Load Difference {W},Std Dev Warmup Load Difference {W},Heating Load Pass/Fail Convergence,Cooling Load Pass/Fail Convergence
 Warmup Convergence Information,BUILDING STORY 1 THERMALZONE,SizingPeriod: BUFFALO NIAGARA INTL AP ANN CLG .4% CONDNS DB=>MWB,4.2255768415E-004,3.9730658792E-004,Pass,Pass,4.8270083391E-002,5.0621484050E-002,Pass,Pass
 Warmup Convergence Information,BUILDING STORY 2 THERMALZONE,SizingPeriod: BUFFALO NIAGARA INTL AP ANN CLG .4% CONDNS DB=>MWB,9.6248860645E-002,0.2500219652,Pass,Pass,1.2009026800E-002,1.8717580761E-002,Pass,Pass
 Warmup Convergence Information,BUILDING STORY 3 THERMALZONE,SizingPeriod: BUFFALO NIAGARA INTL AP ANN CLG .4% CONDNS DB=>MWB,1.5324481508E-003,2.0467918818E-003,Pass,Pass,9.0907441630E-003,8.8975921365E-003,Pass,Pass
 Warmup Convergence Information,BUILDING STORY 4 THERMALZONE,SizingPeriod: BUFFALO NIAGARA INTL AP ANN CLG .4% CONDNS DB=>MWB,0.2253163047,0.4371403078,Pass,Pass,8.3855636670E-002,0.1824479511,Pass,Pass
 Warmup Convergence Information,BUILDING STORY 5 THERMALZONE,SizingPeriod: BUFFALO NIAGARA INTL AP ANN CLG .4% CONDNS DB=>MWB,8.0056293855E-002,5.7479341821E-002,Pass,Pass,8.8140911869E-003,6.3593464503E-003,Pass,Pass
 Warmup Convergence Information,BUILDING STORY 6 THERMALZONE,SizingPeriod: BUFFALO NIAGARA INTL AP ANN CLG .4% CONDNS DB=>MWB,6.8655256008E-002,6.0221146475E-002,Pass,Pass,6.6423488213E-003,5.8744463379E-003,Pass,Pass
 Warmup Convergence Information,BUILDING STORY 7 THERMALZONE,SizingPeriod: BUFFALO NIAGARA INTL AP ANN CLG .4% CONDNS DB=>MWB,9.8117122488E-004,1.4351053885E-003,Pass,Pass,1.1720895065E-002,1.1669742858E-002,Pass,Pass
 Warmup Convergence Information,BUILDING STORY 8 THERMALZONE,SizingPeriod: BUFFALO NIAGARA INTL AP ANN CLG .4% CONDNS DB=>MWB,4.7696656674E-002,6.4153263478E-002,Pass,Pass,2.1818141222E-002,1.8115042947E-002,Pass,Pass
Environment,BUFFALO NIAGARA INTL AP ANN CLG .4% CONDNS WB=>MDB,SizingPeriod:DesignDay,07/21,07/21,SummerDesignDay,1,N/A,N/A,N/A,N/A,N/A,N/A
Environment:Daylight Saving,No,SizingPeriod:DesignDay
Environment:Design Day Data,27.80,9.30,DefaultMultipliers,98769,240,5.7,0.00,No,No
Environment:Design Day Misc,202,1084.4,0.2082,0.1365,1.0,-6.23,20.6,ASHRAETau
Environment:WarmupDays,  6
 Warmup Convergence Information,BUILDING STORY 1 THERMALZONE,SizingPeriod: BUFFALO NIAGARA INTL AP ANN CLG .4% CONDNS WB=>MDB,5.2219023666E-004,3.8438973653E-004,Pass,Pass,4.9699883818E-002,5.1778953635E-002,Pass,Pass
 Warmup Convergence Information,BUILDING STORY 2 THERMALZONE,SizingPeriod: BUFFALO NIAGARA INTL AP ANN CLG .4% CONDNS WB=>MDB,9.3085167224E-002,0.2419627493,Pass,Pass,1.1828330091E-002,1.8247791888E-002,Pass,Pass
 Warmup Convergence Information,BUILDING STORY 3 THERMALZONE,SizingPeriod: BUFFALO NIAGARA INTL AP ANN CLG .4% CONDNS WB=>MDB,1.7393168771E-003,1.9868665815E-003,Pass,Pass,9.1507188217E-003,8.9682212192E-003,Pass,Pass
 Warmup Convergence Information,BUILDING STORY 4 THERMALZONE,SizingPeriod: BUFFALO NIAGARA INTL AP ANN CLG .4% CONDNS WB=>MDB,0.2253899232,0.4215773792,Pass,Pass,8.0615784340E-002,0.1771078573,Pass,Pass
 Warmup Convergence Information,BUILDING STORY 5 THERMALZONE,SizingPeriod: BUFFALO NIAGARA INTL AP ANN CLG .4% CONDNS WB=>MDB,7.9777502331E-002,5.7264309176E-002,Pass,Pass,8.9816268629E-003,6.4666822011E-003,Pass,Pass
 Warmup Convergence Information,BUILDING STORY 6 THERMALZONE,SizingPeriod: BUFFALO NIAGARA INTL AP ANN CLG .4% CONDNS WB=>MDB,6.8436730340E-002,6.0042700862E-002,Pass,Pass,6.7217417342E-003,5.9327346838E-003,Pass,Pass
 Warmup Convergence Information,BUILDING STORY 7 THERMALZONE,SizingPeriod: BUFFALO NIAGARA INTL AP ANN CLG .4% CONDNS WB=>MDB,9.6535757445E-004,1.4003521311E-003,Pass,Pass,1.1865271292E-002,1.1793683765E-002,Pass,Pass
 Warmup Convergence Information,BUILDING STORY 8 THERMALZONE,SizingPeriod: BUFFALO NIAGARA INTL AP ANN CLG .4% CONDNS WB=>MDB,7.9651894318E-002,8.4200200886E-002,Pass,Pass,2.0692040856E-002,1.5556376211E-002,Pass,Pass
Environment,BUFFALO NIAGARA INTL AP ANN HTG 99.6% CONDNS DB,SizingPeriod:DesignDay,01/21,01/21,WinterDesignDay,1,N/A,N/A,N/A,N/A,N/A,N/A
Environment:Daylight Saving,No,SizingPeriod:DesignDay
Environment:Design Day Data,-16.30,0.00,DefaultMultipliers,98769,270,5.1,0.00,No,No
Environment:Design Day Misc, 21,1229.0,0.1415,5.7310E-002,1.0,-11.15,-20.1,ASHRAEClearSky
Environment:WarmupDays,  7
 Warmup Convergence Information,BUILDING STORY 1 THERMALZONE,SizingPeriod: BUFFALO NIAGARA INTL AP ANN HTG 99.6% CONDNS DB,1.4542489244E-004,2.0385678260E-004,Pass,Pass,6.6946200611E-005,8.4332923050E-005,Pass,Pass
 Warmup Convergence Information,BUILDING STORY 2 THERMALZONE,SizingPeriod: BUFFALO NIAGARA INTL AP ANN HTG 99.6% CONDNS DB,6.2219179573E-004,1.1447027701E-004,Pass,Pass,8.3885651779E-004,1.6598755842E-004,Pass,Pass
 Warmup Convergence Information,BUILDING STORY 3 THERMALZONE,SizingPeriod: BUFFALO NIAGARA INTL AP ANN HTG 99.6% CONDNS DB,2.4521656811E-004,3.1234851571E-004,Pass,Pass,9.8849272557E-005,1.0821771034E-004,Pass,Pass
 Warmup Convergence Information,BUILDING STORY 4 THERMALZONE,SizingPeriod: BUFFALO NIAGARA INTL AP ANN HTG 99.6% CONDNS DB,0.4516599808,0.9025199767,Pass,Pass,0.9633520549,3.8216234343,Pass,Pass
 Warmup Convergence Information,BUILDING STORY 5 THERMALZONE,SizingPeriod: BUFFALO NIAGARA INTL AP ANN HTG 99.6% CONDNS DB,0.4645130693,1.1785417950,Pass,Pass,0.3810400596,1.1577179004,Pass,Pass
 Warmup Convergence Information,BUILDING STORY 6 THERMALZONE,SizingPeriod: BUFFALO NIAGARA INTL AP ANN HTG 99.6% CONDNS DB,0.4659861342,1.1969905562,Pass,Pass,0.2102862917,0.3859967287,Pass,Pass
 Warmup Convergence Information,BUILDING STORY 7 THERMALZONE,SizingPeriod: BUFFALO NIAGARA INTL AP ANN HTG 99.6% CONDNS DB,2.5288577074E-003,3.4306878212E-003,Pass,Pass,2.1591903971E-003,3.7222249942E-003,Pass,Pass
 Warmup Convergence Information,BUILDING STORY 8 THERMALZONE,SizingPeriod: BUFFALO NIAGARA INTL AP ANN HTG 99.6% CONDNS DB,7.4452807415E-005,1.5536239727E-005,Pass,Pass,5.5774213023E-006,1.3494492536E-006,Pass,Pass
! <Program Control Information:Threads/Parallel Sims>, Threading Supported,Maximum Number of Threads, Env Set Threads (OMP_NUM_THREADS), EP Env Set Threads (EP_OMP_NUM_THREADS), IDF Set Threads, Number of Threads Used (Interior Radiant Exchange), Number Nominal Surfaces, Number Parallel Sims
Program Control:Threads/Parallel Sims, No,1, N/A, N/A, N/A, N/A, N/A, N/A
End of Data
