Program Version,EnergyPlus, Version 9.1.0-08d2e308bb, YMD=2019.12.31 12:55,
   ** Warning ** Timestep: Requested number (1) is less than the suggested minimum of 4.
   **   ~~~   ** Please see entry for Timestep in Input/Output Reference for discussion of considerations.
   ************* Beginning Zone Sizing Calculations
   ** Warning ** ProcessScheduleInput: Schedule:Day:Interval="177 SPACE(S) OCC SCH DEFAULT", Blank Schedule Type Limits Name input -- will not be validated.
   ** Warning ** ProcessScheduleInput: Schedule:Day:Interval="177 SPACE(S) OCC SCH SATURDAY", Blank Schedule Type Limits Name input -- will not be validated.
   ** Warning ** ProcessScheduleInput: Schedule:Day:Interval="177 SPACE(S) OCC SCH SUMMER DESIGN DAY", Blank Schedule Type Limits Name input -- will not be validated.
   ** Warning ** ProcessScheduleInput: Schedule:Day:Interval="177 SPACE(S) OCC SCH SUNDAY", Blank Schedule Type Limits Name input -- will not be validated.
   ** Warning ** ProcessScheduleInput: Schedule:Day:Interval="177 SPACE(S) OCC SCH WINTER DESIGN DAY", Blank Schedule Type Limits Name input -- will not be validated.
   ** Warning ** ProcessScheduleInput: Schedule:Year="ELEVATOR SCHEDULE", Blank Schedule Type Limits Name input -- will not be validated.
   ** Warning ** ProcessScheduleInput: Schedule:Constant="ALWAYS OFF DISCRETE", Blank Schedule Type Limits Name input -- will not be validated.
   ** Warning ** ProcessScheduleInput: Schedule:Constant="ALWAYS ON CONTINUOUS", Blank Schedule Type Limits Name input -- will not be validated.
   ** Warning ** CheckUsedConstructions: There are 9 nominally unused constructions in input.
   **   ~~~   ** For explicit details on each unused construction, use Output:Diagnostics,DisplayExtraWarnings;
   ** Warning ** DetermineShadowingCombinations: There are 4 surfaces which are receiving surfaces and are non-convex.
   **   ~~~   ** ...Shadowing values may be inaccurate. Check .shd report file for more surface shading details
   **   ~~~   ** ...Add Output:Diagnostics,DisplayExtraWarnings; to see individual warnings for each surface.
   ** Warning ** DeterminePolygonOverlap: Too many figures [>15000]  detected in an overlap calculation. Use Output:Diagnostics,DisplayExtraWarnings; for more details.
   ** Warning ** Calculated design heating load for zone=BUILDING STORY 7 THERMALZONE is zero.
   **   ~~~   ** Check Sizing:Zone and ZoneControl:Thermostat inputs.
   ************* Beginning System Sizing Calculations
   ** Warning ** Since Zone Minimum Air Flow Input Method = CONSTANT, input for Fixed Minimum Air Flow Rate will be ignored.
   **   ~~~   ** Occurs in AirTerminal:SingleDuct:VAV:Reheat = BUILDING STORY 1 THERMALZONE VAV TERMINAL
   ** Warning ** Since Damper Heating Action = NORMAL, input for Maximum Flow Fraction During Reheat will be ignored.
   **   ~~~   ** Occurs in AirTerminal:SingleDuct:VAV:Reheat = BUILDING STORY 1 THERMALZONE VAV TERMINAL
   ** Warning ** Since Zone Minimum Air Flow Input Method = CONSTANT, input for Fixed Minimum Air Flow Rate will be ignored.
   **   ~~~   ** Occurs in AirTerminal:SingleDuct:VAV:Reheat = BUILDING STORY 10 THERMALZONE VAV TERMINAL
   ** Warning ** Since Damper Heating Action = NORMAL, input for Maximum Flow Fraction During Reheat will be ignored.
   **   ~~~   ** Occurs in AirTerminal:SingleDuct:VAV:Reheat = BUILDING STORY 10 THERMALZONE VAV TERMINAL
   ** Warning ** Since Zone Minimum Air Flow Input Method = CONSTANT, input for Fixed Minimum Air Flow Rate will be ignored.
   **   ~~~   ** Occurs in AirTerminal:SingleDuct:VAV:Reheat = BUILDING STORY 2 THERMALZONE VAV TERMINAL
   ** Warning ** Since Damper Heating Action = NORMAL, input for Maximum Flow Fraction During Reheat will be ignored.
   **   ~~~   ** Occurs in AirTerminal:SingleDuct:VAV:Reheat = BUILDING STORY 2 THERMALZONE VAV TERMINAL
   ** Warning ** Since Zone Minimum Air Flow Input Method = CONSTANT, input for Fixed Minimum Air Flow Rate will be ignored.
   **   ~~~   ** Occurs in AirTerminal:SingleDuct:VAV:Reheat = BUILDING STORY 3 THERMALZONE VAV TERMINAL
   ** Warning ** Since Damper Heating Action = NORMAL, input for Maximum Flow Fraction During Reheat will be ignored.
   **   ~~~   ** Occurs in AirTerminal:SingleDuct:VAV:Reheat = BUILDING STORY 3 THERMALZONE VAV TERMINAL
   ** Warning ** Since Zone Minimum Air Flow Input Method = CONSTANT, input for Fixed Minimum Air Flow Rate will be ignored.
   **   ~~~   ** Occurs in AirTerminal:SingleDuct:VAV:Reheat = BUILDING STORY 4 THERMALZONE VAV TERMINAL
   ** Warning ** Since Damper Heating Action = NORMAL, input for Maximum Flow Fraction During Reheat will be ignored.
   **   ~~~   ** Occurs in AirTerminal:SingleDuct:VAV:Reheat = BUILDING STORY 4 THERMALZONE VAV TERMINAL
   ** Warning ** Since Zone Minimum Air Flow Input Method = CONSTANT, input for Fixed Minimum Air Flow Rate will be ignored.
   **   ~~~   ** Occurs in AirTerminal:SingleDuct:VAV:Reheat = BUILDING STORY 5 THERMALZONE VAV TERMINAL
   ** Warning ** Since Damper Heating Action = NORMAL, input for Maximum Flow Fraction During Reheat will be ignored.
   **   ~~~   ** Occurs in AirTerminal:SingleDuct:VAV:Reheat = BUILDING STORY 5 THERMALZONE VAV TERMINAL
   ** Warning ** Since Zone Minimum Air Flow Input Method = CONSTANT, input for Fixed Minimum Air Flow Rate will be ignored.
   **   ~~~   ** Occurs in AirTerminal:SingleDuct:VAV:Reheat = BUILDING STORY 6 THERMALZONE VAV TERMINAL
   ** Warning ** Since Damper Heating Action = NORMAL, input for Maximum Flow Fraction During Reheat will be ignored.
   **   ~~~   ** Occurs in AirTerminal:SingleDuct:VAV:Reheat = BUILDING STORY 6 THERMALZONE VAV TERMINAL
   ** Warning ** Since Zone Minimum Air Flow Input Method = CONSTANT, input for Fixed Minimum Air Flow Rate will be ignored.
   **   ~~~   ** Occurs in AirTerminal:SingleDuct:VAV:Reheat = BUILDING STORY 7 THERMALZONE VAV TERMINAL
   ** Warning ** Since Damper Heating Action = NORMAL, input for Maximum Flow Fraction During Reheat will be ignored.
   **   ~~~   ** Occurs in AirTerminal:SingleDuct:VAV:Reheat = BUILDING STORY 7 THERMALZONE VAV TERMINAL
   ** Warning ** Since Zone Minimum Air Flow Input Method = CONSTANT, input for Fixed Minimum Air Flow Rate will be ignored.
   **   ~~~   ** Occurs in AirTerminal:SingleDuct:VAV:Reheat = BUILDING STORY 8 THERMALZONE VAV TERMINAL
   ** Warning ** Since Damper Heating Action = NORMAL, input for Maximum Flow Fraction During Reheat will be ignored.
   **   ~~~   ** Occurs in AirTerminal:SingleDuct:VAV:Reheat = BUILDING STORY 8 THERMALZONE VAV TERMINAL
   ** Warning ** Since Zone Minimum Air Flow Input Method = CONSTANT, input for Fixed Minimum Air Flow Rate will be ignored.
   **   ~~~   ** Occurs in AirTerminal:SingleDuct:VAV:Reheat = BUILDING STORY 9 THERMALZONE VAV TERMINAL
   ** Warning ** Since Damper Heating Action = NORMAL, input for Maximum Flow Fraction During Reheat will be ignored.
   **   ~~~   ** Occurs in AirTerminal:SingleDuct:VAV:Reheat = BUILDING STORY 9 THERMALZONE VAV TERMINAL
   ************* Beginning Plant Sizing Calculations
   ** Severe  ** InitFans: Fan=[Fan:ZoneExhaust,ZONE OUTPATIENT ANESTHESIA A  - STORY GROUND EXHAUST FAN] is not on any ZoneHVAC:EquipmentList.  It will not be simulated.
   ** Severe  ** InitFans: Fan=[Fan:ZoneExhaust,ZONE OUTPATIENT ANESTHESIA B  - STORY GROUND EXHAUST FAN] is not on any ZoneHVAC:EquipmentList.  It will not be simulated.
   ** Severe  ** InitFans: Fan=[Fan:ZoneExhaust,ZONE OUTPATIENT ANESTHESIA C  - STORY GROUND EXHAUST FAN] is not on any ZoneHVAC:EquipmentList.  It will not be simulated.
   ** Severe  ** InitFans: Fan=[Fan:ZoneExhaust,ZONE OUTPATIENT MRI A  - STORY GROUND EXHAUST FAN] is not on any ZoneHVAC:EquipmentList.  It will not be simulated.
   ** Severe  ** InitFans: Fan=[Fan:ZoneExhaust,ZONE OUTPATIENT MRI B  - STORY GROUND EXHAUST FAN] is not on any ZoneHVAC:EquipmentList.  It will not be simulated.
   ** Severe  ** InitFans: Fan=[Fan:ZoneExhaust,ZONE OUTPATIENT MRI C  - STORY GROUND EXHAUST FAN] is not on any ZoneHVAC:EquipmentList.  It will not be simulated.
   ** Severe  ** InitFans: Fan=[Fan:ZoneExhaust,ZONE OUTPATIENT MRI_CONTROL A  - STORY GROUND EXHAUST FAN] is not on any ZoneHVAC:EquipmentList.  It will not be simulated.
   ** Severe  ** InitFans: Fan=[Fan:ZoneExhaust,ZONE OUTPATIENT MRI_CONTROL B  - STORY GROUND EXHAUST FAN] is not on any ZoneHVAC:EquipmentList.  It will not be simulated.
   ** Severe  ** InitFans: Fan=[Fan:ZoneExhaust,ZONE OUTPATIENT MRI_CONTROL C  - STORY GROUND EXHAUST FAN] is not on any ZoneHVAC:EquipmentList.  It will not be simulated.
   ** Severe  ** InitFans: Fan=[Fan:ZoneExhaust,ZONE OUTPATIENT SOIL WORK A  - STORY GROUND EXHAUST FAN] is not on any ZoneHVAC:EquipmentList.  It will not be simulated.
   ** Severe  ** InitFans: Fan=[Fan:ZoneExhaust,ZONE OUTPATIENT SOIL WORK B  - STORY GROUND EXHAUST FAN] is not on any ZoneHVAC:EquipmentList.  It will not be simulated.
   ** Severe  ** InitFans: Fan=[Fan:ZoneExhaust,ZONE OUTPATIENT SOIL WORK C  - STORY GROUND EXHAUST FAN] is not on any ZoneHVAC:EquipmentList.  It will not be simulated.
   ** Severe  ** InitFans: Fan=[Fan:ZoneExhaust,ZONE OUTPATIENT TOILET A  - STORY MID EXHAUST FAN] is not on any ZoneHVAC:EquipmentList.  It will not be simulated.
   ** Severe  ** InitFans: Fan=[Fan:ZoneExhaust,ZONE OUTPATIENT TOILET A END_A - STORY MID EXHAUST FAN] is not on any ZoneHVAC:EquipmentList.  It will not be simulated.
   ** Severe  ** InitFans: Fan=[Fan:ZoneExhaust,ZONE OUTPATIENT TOILET B  - STORY MID EXHAUST FAN] is not on any ZoneHVAC:EquipmentList.  It will not be simulated.
   ** Severe  ** InitFans: Fan=[Fan:ZoneExhaust,ZONE OUTPATIENT TOILET B END_A - STORY MID EXHAUST FAN] is not on any ZoneHVAC:EquipmentList.  It will not be simulated.
   ** Severe  ** InitFans: Fan=[Fan:ZoneExhaust,ZONE OUTPATIENT TOILET C  - STORY MID EXHAUST FAN] is not on any ZoneHVAC:EquipmentList.  It will not be simulated.
   ** Severe  ** InitFans: Fan=[Fan:ZoneExhaust,ZONE OUTPATIENT TOILET C END_A - STORY MID EXHAUST FAN] is not on any ZoneHVAC:EquipmentList.  It will not be simulated.
   ** Warning ** Missing temperature setpoint for LeavingSetpointModulated mode Boiler named BOILER
   **   ~~~   **   A temperature setpoint is needed at the outlet node of a boiler in variable flow mode, use a SetpointManager
   **   ~~~   **   The overall loop setpoint will be assumed for Boiler. The simulation continues ... 
   ** Warning ** Output:Meter: invalid Key Name="DISTRICTCOOLING:FACILITY" - not found.
   ** Warning ** Output:Meter: invalid Key Name="DISTRICTHEATING:FACILITY" - not found.
   ** Warning ** Output:Meter:MeterFileOnly requested for "Electricity:Facility" (TimeStep), already on "Output:Meter". Will report to both eplusout.eso and eplusout.mtr
   ************* Testing Individual Branch Integrity
   ************* All Branches passed integrity testing
   ************* Testing Individual Supply Air Path Integrity
   ************* All Supply Air Paths passed integrity testing
   ************* Testing Individual Return Air Path Integrity
   ************* All Return Air Paths passed integrity testing
   ** Severe  ** Node Connection Error, Node="ZONE OUTPATIENT ANESTHESIA A  - STORY GROUND EXHAUST FAN INLET AIR NODE", Inlet node did not find an appropriate matching "outlet" node.
   **   ~~~   ** If this is an outdoor air inlet node, it must be listed in an OutdoorAir:Node or OutdoorAir:NodeList object.
   **   ~~~   ** Reference Object=FAN:ZONEEXHAUST, Name=ZONE OUTPATIENT ANESTHESIA A  - STORY GROUND EXHAUST FAN
   ** Severe  ** Node Connection Error, Node="ZONE OUTPATIENT ANESTHESIA B  - STORY GROUND EXHAUST FAN INLET AIR NODE", Inlet node did not find an appropriate matching "outlet" node.
   **   ~~~   ** If this is an outdoor air inlet node, it must be listed in an OutdoorAir:Node or OutdoorAir:NodeList object.
   **   ~~~   ** Reference Object=FAN:ZONEEXHAUST, Name=ZONE OUTPATIENT ANESTHESIA B  - STORY GROUND EXHAUST FAN
   ** Severe  ** Node Connection Error, Node="ZONE OUTPATIENT ANESTHESIA C  - STORY GROUND EXHAUST FAN INLET AIR NODE", Inlet node did not find an appropriate matching "outlet" node.
   **   ~~~   ** If this is an outdoor air inlet node, it must be listed in an OutdoorAir:Node or OutdoorAir:NodeList object.
   **   ~~~   ** Reference Object=FAN:ZONEEXHAUST, Name=ZONE OUTPATIENT ANESTHESIA C  - STORY GROUND EXHAUST FAN
   ** Severe  ** Node Connection Error, Node="ZONE OUTPATIENT MRI A  - STORY GROUND EXHAUST FAN INLET AIR NODE", Inlet node did not find an appropriate matching "outlet" node.
   **   ~~~   ** If this is an outdoor air inlet node, it must be listed in an OutdoorAir:Node or OutdoorAir:NodeList object.
   **   ~~~   ** Reference Object=FAN:ZONEEXHAUST, Name=ZONE OUTPATIENT MRI A  - STORY GROUND EXHAUST FAN
   ** Severe  ** Node Connection Error, Node="ZONE OUTPATIENT MRI B  - STORY GROUND EXHAUST FAN INLET AIR NODE", Inlet node did not find an appropriate matching "outlet" node.
   **   ~~~   ** If this is an outdoor air inlet node, it must be listed in an OutdoorAir:Node or OutdoorAir:NodeList object.
   **   ~~~   ** Reference Object=FAN:ZONEEXHAUST, Name=ZONE OUTPATIENT MRI B  - STORY GROUND EXHAUST FAN
   ** Severe  ** Node Connection Error, Node="ZONE OUTPATIENT MRI C  - STORY GROUND EXHAUST FAN INLET AIR NODE", Inlet node did not find an appropriate matching "outlet" node.
   **   ~~~   ** If this is an outdoor air inlet node, it must be listed in an OutdoorAir:Node or OutdoorAir:NodeList object.
   **   ~~~   ** Reference Object=FAN:ZONEEXHAUST, Name=ZONE OUTPATIENT MRI C  - STORY GROUND EXHAUST FAN
   ** Severe  ** Node Connection Error, Node="ZONE OUTPATIENT MRI_CONTROL A  - STORY GROUND EXHAUST FAN INLET AIR NODE", Inlet node did not find an appropriate matching "outlet" node.
   **   ~~~   ** If this is an outdoor air inlet node, it must be listed in an OutdoorAir:Node or OutdoorAir:NodeList object.
   **   ~~~   ** Reference Object=FAN:ZONEEXHAUST, Name=ZONE OUTPATIENT MRI_CONTROL A  - STORY GROUND EXHAUST FAN
   ** Severe  ** Node Connection Error, Node="ZONE OUTPATIENT MRI_CONTROL B  - STORY GROUND EXHAUST FAN INLET AIR NODE", Inlet node did not find an appropriate matching "outlet" node.
   **   ~~~   ** If this is an outdoor air inlet node, it must be listed in an OutdoorAir:Node or OutdoorAir:NodeList object.
   **   ~~~   ** Reference Object=FAN:ZONEEXHAUST, Name=ZONE OUTPATIENT MRI_CONTROL B  - STORY GROUND EXHAUST FAN
   ** Severe  ** Node Connection Error, Node="ZONE OUTPATIENT MRI_CONTROL C  - STORY GROUND EXHAUST FAN INLET AIR NODE", Inlet node did not find an appropriate matching "outlet" node.
   **   ~~~   ** If this is an outdoor air inlet node, it must be listed in an OutdoorAir:Node or OutdoorAir:NodeList object.
   **   ~~~   ** Reference Object=FAN:ZONEEXHAUST, Name=ZONE OUTPATIENT MRI_CONTROL C  - STORY GROUND EXHAUST FAN
   ** Severe  ** Node Connection Error, Node="ZONE OUTPATIENT SOIL WORK A  - STORY GROUND EXHAUST FAN INLET AIR NODE", Inlet node did not find an appropriate matching "outlet" node.
   **   ~~~   ** If this is an outdoor air inlet node, it must be listed in an OutdoorAir:Node or OutdoorAir:NodeList object.
   **   ~~~   ** Reference Object=FAN:ZONEEXHAUST, Name=ZONE OUTPATIENT SOIL WORK A  - STORY GROUND EXHAUST FAN
   ** Severe  ** Node Connection Error, Node="ZONE OUTPATIENT SOIL WORK B  - STORY GROUND EXHAUST FAN INLET AIR NODE", Inlet node did not find an appropriate matching "outlet" node.
   **   ~~~   ** If this is an outdoor air inlet node, it must be listed in an OutdoorAir:Node or OutdoorAir:NodeList object.
   **   ~~~   ** Reference Object=FAN:ZONEEXHAUST, Name=ZONE OUTPATIENT SOIL WORK B  - STORY GROUND EXHAUST FAN
   ** Severe  ** Node Connection Error, Node="ZONE OUTPATIENT SOIL WORK C  - STORY GROUND EXHAUST FAN INLET AIR NODE", Inlet node did not find an appropriate matching "outlet" node.
   **   ~~~   ** If this is an outdoor air inlet node, it must be listed in an OutdoorAir:Node or OutdoorAir:NodeList object.
   **   ~~~   ** Reference Object=FAN:ZONEEXHAUST, Name=ZONE OUTPATIENT SOIL WORK C  - STORY GROUND EXHAUST FAN
   ** Severe  ** Node Connection Error, Node="ZONE OUTPATIENT TOILET A  - STORY MID EXHAUST FAN INLET AIR NODE", Inlet node did not find an appropriate matching "outlet" node.
   **   ~~~   ** If this is an outdoor air inlet node, it must be listed in an OutdoorAir:Node or OutdoorAir:NodeList object.
   **   ~~~   ** Reference Object=FAN:ZONEEXHAUST, Name=ZONE OUTPATIENT TOILET A  - STORY MID EXHAUST FAN
   ** Severe  ** Node Connection Error, Node="ZONE OUTPATIENT TOILET A END_A - STORY MID EXHAUST FAN INLET AIR NODE", Inlet node did not find an appropriate matching "outlet" node.
   **   ~~~   ** If this is an outdoor air inlet node, it must be listed in an OutdoorAir:Node or OutdoorAir:NodeList object.
   **   ~~~   ** Reference Object=FAN:ZONEEXHAUST, Name=ZONE OUTPATIENT TOILET A END_A - STORY MID EXHAUST FAN
   ** Severe  ** Node Connection Error, Node="ZONE OUTPATIENT TOILET B  - STORY MID EXHAUST FAN INLET AIR NODE", Inlet node did not find an appropriate matching "outlet" node.
   **   ~~~   ** If this is an outdoor air inlet node, it must be listed in an OutdoorAir:Node or OutdoorAir:NodeList object.
   **   ~~~   ** Reference Object=FAN:ZONEEXHAUST, Name=ZONE OUTPATIENT TOILET B  - STORY MID EXHAUST FAN
   ** Severe  ** Node Connection Error, Node="ZONE OUTPATIENT TOILET B END_A - STORY MID EXHAUST FAN INLET AIR NODE", Inlet node did not find an appropriate matching "outlet" node.
   **   ~~~   ** If this is an outdoor air inlet node, it must be listed in an OutdoorAir:Node or OutdoorAir:NodeList object.
   **   ~~~   ** Reference Object=FAN:ZONEEXHAUST, Name=ZONE OUTPATIENT TOILET B END_A - STORY MID EXHAUST FAN
   ** Severe  ** Node Connection Error, Node="ZONE OUTPATIENT TOILET C  - STORY MID EXHAUST FAN INLET AIR NODE", Inlet node did not find an appropriate matching "outlet" node.
   **   ~~~   ** If this is an outdoor air inlet node, it must be listed in an OutdoorAir:Node or OutdoorAir:NodeList object.
   **   ~~~   ** Reference Object=FAN:ZONEEXHAUST, Name=ZONE OUTPATIENT TOILET C  - STORY MID EXHAUST FAN
   ** Severe  ** Node Connection Error, Node="ZONE OUTPATIENT TOILET C END_A - STORY MID EXHAUST FAN INLET AIR NODE", Inlet node did not find an appropriate matching "outlet" node.
   **   ~~~   ** If this is an outdoor air inlet node, it must be listed in an OutdoorAir:Node or OutdoorAir:NodeList object.
   **   ~~~   ** Reference Object=FAN:ZONEEXHAUST, Name=ZONE OUTPATIENT TOILET C END_A - STORY MID EXHAUST FAN
   ************* There were 18 node connection errors noted.
   ************* Beginning Simulation
   ** Warning ** Output:Table:Monthly requested with SimulationControl Run Simulation for Weather File Run Periods set to No so Output:Table:Monthly will not be generated
   ** Warning ** Plant Loop: CONDENSER WATER LOOP Demand Side is storing excess heat the majority of the time.
   ** Warning ** Plant Loop: CONDENSER WATER LOOP Supply Side is storing excess heat the majority of the time.
   ************* Simulation Error Summary *************
   ************* There are 8 unused objects in input.
   ************* Use Output:Diagnostics,DisplayUnusedObjects; to see them.
   ************* There are 10 unused schedules in input.
   ************* There are 11 unused week schedules in input.
   ************* There are 24 unused day schedules in input.
   ************* Use Output:Diagnostics,DisplayUnusedSchedules; to see them.
   *************
   ************* ===== Final Error Summary =====
   ************* The following error categories occurred.  Consider correcting or noting.
   ************* Node Connection Errors
   ************* ..Node connection errors are often caused by spelling mistakes in a node name field.
   ************* ..To track down the problem, search the idf file for each node name listed to see if it
   ************* ..occurs in the expected input fields.
   ************* Nominally Unused Constructions
   ************* ..The nominally unused constructions warning is provided to alert you to potential conditions that can cause
   ************* ..extra time during simulation. Each construction is calculated by the algorithm indicated in the HeatBalanceAlgorithm
   ************* ..object. You may remove the constructions indicated (when you use the DisplayExtraWarnings option).
   *************
   ************* EnergyPlus Warmup Error Summary. During Warmup: 0 Warning; 0 Severe Errors.
   ************* EnergyPlus Sizing Error Summary. During Sizing: 31 Warning; 0 Severe Errors.
   ************* EnergyPlus Completed Successfully-- 43 Warning; 36 Severe Errors; Elapsed Time=00hr 00min 13.55sec
